15
-17.725350245080
C          -1.56084431632487    0.66701681210163   -0.92647077177856
C          -0.08573893889243    0.63200398833566   -0.53813632218860
H          -1.74453265011283    1.47698354703119   -1.62826326927374
H          -2.19640921602252    0.83129541705495   -0.05757997823433
H          -1.85468507585497   -0.26853652471648   -1.39951705560620
H           0.17944754331305    1.55501430974782   -0.01851264560914
H           0.52238212543779    0.56406111686404   -1.44161452051425
C           0.26750005414173   -0.55587086645726    0.36825582820920
O          -0.34229781036840   -0.45042870923511    1.63962369767599
C           1.77201785497052   -0.63838615236443    0.60299477493282
H          -0.07106527191608   -1.48612609000735   -0.12167240204879
H           2.12232402529667    0.28393737390196    1.05842821068411
H           2.29485669935320   -0.79869914218285   -0.33548918725589
H           1.98935444115175   -1.45982048920873    1.27975963377377
H          -1.29230946417278   -0.35244449086535    1.51819380723344
