150
-177.417976057434
C          -4.50184324710203    3.14494834465595   -4.97247305928866
C          -3.03501483338881    3.50436813725507   -4.76887082793878
H          -4.86381852941768    2.56273870148946   -4.12878997547972
H          -4.62738097426474    2.55193173115022   -5.87617390210100
H          -5.10808723629660    4.04348052031676   -5.06155042082744
C          -2.16764543769246    2.26192151520140   -4.54103885177923
H          -2.93350898321397    4.15252743441890   -3.89526656007420
H          -2.66022561735325    4.04412368139436   -5.64023062087935
O          -2.56645510281928    1.57874740844494   -3.37067646083892
C          -0.68746517188071    2.63621010717692   -4.46563709969211
H          -2.32751835568648    1.54900464909795   -5.35994768862763
H          -0.52986988347833    3.33406586744091   -3.64608171319916
H          -0.36622278922380    3.10100891033176   -5.39382641316897
H          -0.08490129926906    1.74910185180227   -4.28856667969315
H          -2.51959643754408    2.22301041107578   -2.62795938942234
C           1.14171271366282   -4.02259749901367   -4.00995295807511
C           0.48860820840899   -3.04698915572706   -4.98151532576555
H           1.21087617541346   -3.57630146109432   -3.02077447321167
H           2.14441339966318   -4.28234523819700   -4.34296938289672
H           0.55623319874887   -4.93639313024400   -3.93686516085817
C           1.23904736574685   -1.71227171471971   -5.06224832605339
H          -0.53301417101836   -2.83744654437003   -4.65900748836436
H           0.44854629940333   -3.48800536901433   -5.97899577709497
O           1.30068867839440   -1.07897481811808   -3.80126956435328
C           0.58330213726272   -0.79080360760253   -6.09088510723423
H           2.28334298800951   -1.89361132317542   -5.34945205165858
H          -0.44815069565716   -0.60319082532521   -5.80117059033362
H           0.59942202827783   -1.24722704830565   -7.07678482993092
H           1.11242975433832    0.15834316545898   -6.13371862368700
H           0.37355515527991   -0.97493402687654   -3.49415289029129
C           4.84016786139877   -3.93225328086271   -2.65377641314774
C           4.80420372041300   -2.50565836895600   -3.18802495017098
H           3.86425894901438   -4.21109505419546   -2.26475064648024
H           5.56862935293196   -4.01864796772871   -1.84989332750730
H           5.11349457640980   -4.63093267170532   -3.44126143841416
C           4.32776207203733   -1.50687706726252   -2.12478826098005
H           4.12499795783013   -2.45002644751415   -4.04119150871878
H           5.79931828657593   -2.21257299884255   -3.52690076616698
O           2.99870403245283   -1.77718819805339   -1.72903630245720
C           4.46195698836203   -0.07019210003445   -2.62496596923645
H           4.93376630676623   -1.63891906482518   -1.21909205769157
H           3.81114102159037    0.07793237212750   -3.48421979496329
H           5.48832844384533    0.13944440752133   -2.91362130281616
H           4.16661734387504    0.62661618390876   -1.84516595212831
H           2.40866857686553   -1.54742646039225   -2.47910280622825
C           4.93278796815810    0.37824424474920    1.43861874573858
C           4.01924165394086    1.31610435906461    2.21910417652203
H           4.35933815843057   -0.41764639735331    0.97099235406452
H           5.67236232511257   -0.07014354425206    2.10014464029256
H           5.46036674760130    0.92564216353419    0.66084353245963
C           3.16870685629304    0.58555015647705    3.26857825751570
H           3.34232143391575    1.82824122486710    1.53290814626577
H           4.62350279392278    2.07167852071856    2.72484405647878
O           2.07822140329739   -0.09590302790996    2.67402532097489
C           2.59161210948091    1.56859439678879    4.28446621860591
H           3.80600046750392   -0.13946851974973    3.80179624062647
H           1.97518115999834    2.30300467114084    3.77470882182182
H           3.39376846415971    2.07737257880992    4.81155564724060
H           1.97382961545598    1.04316275360545    5.00733448835894
H           2.40270749549586   -0.81001560566829    2.09349312989490
C          -4.78508231642903    0.02786350064701    2.98280371078691
C          -3.97762350397031    0.55533565973653    4.16281358960167
H          -4.11831490860416   -0.28103861607254    2.18170609307688
H          -5.44581525983753    0.80150666315077    2.59798824065744
H          -5.38867202031973   -0.82582930241657    3.28162903778972
C          -3.01694952358648    1.67373752422209    3.73813474808149
H          -3.38797385633209   -0.25473310830622    4.59785286005903
H          -4.65050677467036    0.93740090076677    4.93214905720500
O          -2.06149134054528    1.18831458999480    2.81840594001183
C          -2.33011046208111    2.29727621348177    4.95219948242866
H          -3.57962950328503    2.44243820832925    3.19357083944833
H          -1.71612684454340    1.54747930193885    5.44708392153402
H          -3.06645873604544    2.67708418281103    5.65487860994531
H          -1.68762881930404    3.11929231764020    4.64405806632212
H          -1.45981922021229    0.58490661551550    3.30567360650001
C          -1.79469274169517   -2.53617624893794    2.78422964386470
C          -0.42283749091654   -2.65395071557255    3.43657598096515
H          -1.95539638796358   -1.52359397705886    2.42578145903531
H          -2.57985216001576   -2.78210980993973    3.49687748450750
H          -1.87338638642952   -3.21666468798633    1.93983931477709
C          -0.25863914053524   -1.69107459418850    4.61912083330464
H           0.35069556139691   -2.42688295210297    2.69943222509422
H          -0.27279266910629   -3.67506732515956    3.79357547072419
O          -0.23616942174558   -0.34546003685343    4.18947437833658
C           1.00074353328114   -2.01660287119501    5.42299936195809
H          -1.13569693423218   -1.76838412834551    5.27513390665655
H           1.87775694503369   -1.93202801911329    4.78519254655867
H           0.94905921687742   -3.02606731791628    5.82202023870187
H           1.10520096282128   -1.31932851107127    6.25153257571858
H           0.56488596438188   -0.22217685421090    3.63665325647860
C          -0.38753789573118   -1.33226901607090   -0.32402892390550
C          -1.79542008288796   -1.02605933336614   -0.82086951608048
H           0.34845206196492   -1.04754043728068   -1.07009084613975
H          -0.27865559894769   -2.39574120465347   -0.12512588914560
H          -0.17844815170730   -0.78338356588467    0.58909697927508
C          -2.05144080040319   -1.62564086896075   -2.20905292423976
H          -1.93743600223354    0.05494008999060   -0.87439304789795
H          -2.52946003823731   -1.42798425212157   -0.12092794289463
O          -1.36822612693149   -0.89932823349424   -3.21216389499148
C          -3.54368410272262   -1.69210697272666   -2.52984564122969
H          -1.62705946434094   -2.63754436381762   -2.24846652382278
H          -3.96517946346427   -0.69001413383223   -2.52216879008319
H          -4.06592214120815   -2.30389780574859   -1.79936931725528
H          -3.69344962714647   -2.12109776499159   -3.51834493395395
H          -1.77223829080027   -0.00539905756707   -3.25696071816932
C           1.30040692188890    1.75930251153827   -1.41351519591614
C           1.09908395984404    2.93781089158999   -0.47083058089228
H           0.33940045394349    1.33324866301103   -1.68157986261357
H           1.89587015970417    0.98704919625802   -0.93312745029629
H           1.80715310894412    2.07749975798476   -2.32100257391265
C           0.39329774729250    2.52010557904321    0.82119817564457
H           0.49585822222797    3.70360708895664   -0.96299720745192
H           2.06356952581630    3.38111747503466   -0.21349680282884
O          -0.90995899706104    2.07698236922319    0.48667504991547
C           0.33313224843584    3.68236204205873    1.81397748425745
H           0.93996859479116    1.68313930553365    1.27964857037618
H          -0.17404675652038    4.53381644608668    1.36490708300263
H           1.33585232405123    3.98936011982586    2.10049745081227
H          -0.21107282703910    3.38014527525944    2.70653673125537
H          -1.35208499000800    1.77398774925538    1.30285252373321
C           4.56030846071015   -3.33741603879998    3.15563212658073
C           3.31235257799190   -3.96380762998127    2.54599360929392
H           4.52973428741091   -2.25721906423584    3.04468815666206
H           5.45455579206224   -3.70619090799337    2.65746745289167
H           4.63010115904061   -3.57866915338872    4.21401114600165
C           3.13289487294543   -3.58639780190509    1.07392307280347
H           2.42904627856819   -3.63476516303171    3.09486932939602
H           3.37352607046074   -5.05075857123815    2.62034747140434
O           2.83977845589462   -2.20272653513927    0.99394531914345
C           2.02377991123567   -4.41120547287417    0.42216809063485
H           4.07735673154921   -3.78028028489913    0.54018376024915
H           1.86820830421389   -4.07201520630737   -0.59953742743630
H           1.09505586556415   -4.29274152258607    0.97562379280810
H           2.29394681487401   -5.46361691824186    0.40627150750418
H           2.74819750127604   -1.97987395269768    0.04701452371106
C          -5.10357241714548    1.78933695908762   -1.00533698632595
C          -4.37866774532855    2.63851688016455    0.03122119009596
H          -4.40625854420835    1.43133828497665   -1.75717517122736
H          -5.87723946580028    2.37211472531645   -1.50221105641873
H          -5.57164793109175    0.92990602453815   -0.53044054226503
C          -3.61646479260562    3.81563313896077   -0.59253676422555
H          -3.66702561486085    2.01819599833429    0.57986114231258
H          -5.10411849138698    3.03590420889294    0.74416671719684
O          -2.47666572861191    3.38816782053311   -1.30849433053925
C          -3.22247592763773    4.82682339877214    0.48572092433446
H          -4.25303533192132    4.30923567626103   -1.33806829934718
H          -2.65720169670183    4.32720416070786    1.26940026091136
H          -4.10704565367518    5.28099131683903    0.92420081775060
H          -2.60598000774216    5.61145814336109    0.05218417933180
H          -1.86657482038016    2.94898616967669   -0.67141765650933
