30
-35.462827980927
C          -0.58085511542501   -2.17548508975177   -1.80501576483045
C          -1.78015465352404   -1.33631766318816   -1.38014582660891
H          -0.68847076092522   -3.19231064404927   -1.43486479995894
H           0.34319228217968   -1.76060403727864   -1.41327989953529
H          -0.50891304173541   -2.21149990614522   -2.89013877243647
H          -1.86760118609047   -1.33933579403542   -0.29246909978791
H          -2.69213499263166   -1.76807100613157   -1.79591258772874
C          -1.67793877011707    0.11966983088456   -1.84078394521384
O          -0.74053372929367    0.77564600598047   -0.99698946907932
C          -3.03296513972089    0.82440804198586   -1.77640366186525
H          -1.30681583260406    0.14529219560478   -2.87789053952053
H          -3.42037058934253    0.78993489695006   -0.76056210832949
H          -3.74222609267546    0.33966656391233   -2.44105910903560
H          -2.93689795857283    1.86717235417391   -2.07651499051454
H          -0.66382499754008    1.69526263832986   -1.27359594041151
C           2.17215100737936    1.66337554325763    2.95522985604442
C           1.80307724441675    1.43815368978572    1.49485970673933
H           2.08667506633817    2.71871878519770    3.20514915127738
H           3.19675425155909    1.34912049086245    3.14175887727489
H           1.51471543915546    1.10522714363940    3.61671834132024
H           2.41963883320061    2.08310366306199    0.86399728082105
H           0.75673682898255    1.70911230111776    1.33004820884228
C           2.01264857935590   -0.00815320134995    1.02155242235153
O           1.91720279320541   -0.08015655179336   -0.38341974830406
C           1.02503910547045   -0.97174906134573    1.67984611759806
H           3.03890819188820   -0.31899997829848    1.25215007930204
H           0.00643278085275   -0.64745942935494    1.47521604951988
H           1.17804700017894   -1.01149358707848    2.75409274583738
H           1.16117902577648   -1.97060027614366    1.27191138379925
H           1.00730443025803    0.16837198120164   -0.62348395756578
