30
-35.463475904132
C          -0.56568480751002    0.04822263700758   -2.42002012248184
C          -1.98294745874646   -0.46680835253250   -2.19670407330339
H          -0.26523429543202   -0.11714676179815   -3.45196668570388
H           0.14072005035637   -0.46052828022116   -1.76912505649960
H          -0.51740811934046    1.11561584865800   -2.21538432193921
H          -2.03327985316551   -1.52820271063951   -2.45731819924661
H          -2.67429563690449    0.06906052323006   -2.84983881157821
C          -2.45611307409432   -0.29316970931511   -0.74886883830081
O          -1.71463953256527   -1.10403225764991    0.14723442048606
C          -3.95113198901731   -0.58685468655701   -0.61999297558893
H          -2.25529806782921    0.73185930580476   -0.41893351984120
H          -4.17276543050641   -1.58790531219602   -0.98753341201788
H          -4.52935458712419    0.13076886202209   -1.19472287992829
H          -4.25263722064882   -0.52470930777798    0.42301443629435
H          -1.83780547767393   -2.02619673524998   -0.10895753560809
C           3.83942841806678    0.79071730643197    2.18449574451115
C           3.11310515341970    0.04075124720153    1.07675504260982
H           4.91080578432903    0.78539216304782    1.99814470778900
H           3.65666436499374    0.31958166052623    3.14803932513170
H           3.51067331081091    1.82549685020087    2.23941980341585
H           3.51937820969185   -0.96850498379522    0.98888757456515
H           3.26665485359359    0.54180290894608    0.11919721375151
C           1.60713829192328   -0.09769287409813    1.31825893665493
O           1.12533836740645   -1.03103608201842    0.37391567033839
C           0.86908920342699    1.23440845204647    1.19476290462516
H           1.44621326425197   -0.49755235530445    2.33581497792795
H           1.04415362049643    1.66542137270974    0.21124221008982
H           1.20627533283506    1.93301995294070    1.95483221715750
H          -0.20025382257140    1.07494081913350    1.32147086021180
H           0.15321104752742   -1.01671950075334    0.40388038647839
