30
-35.462081002491
C          -3.84034397866427   -0.01018570440000   -0.82654222584750
C          -2.52594353236429   -0.54812929897366   -1.38483612479859
H          -4.35617001552353    0.57258238533966   -1.58527329530870
H          -3.67216778430919    0.64178702202338    0.02936696430031
H          -4.49314357125215   -0.82667895381847   -0.52083931315836
H          -1.85698998733270    0.28281520651455   -1.61661587503518
H          -2.72386025882481   -1.09511645134072   -2.30772528818804
C          -1.80839991748884   -1.49618464043708   -0.41712889399353
O          -1.38899265067740   -0.82103127057654    0.76232709582488
C          -0.56201639554464   -2.09483599391652   -1.05832296979766
H          -2.49648312898395   -2.30857489642177   -0.12954399892675
H           0.09608880400881   -1.29801923399160   -1.39406733595327
H          -0.83749331483708   -2.71349877623705   -1.90726135199199
H          -0.03142822575060   -2.70430853780133   -0.33165504716937
H          -2.15594295640408   -0.38968090649622    1.15466354865330
C           3.22477328744221    0.16084045106245    1.94309291499966
C           2.11710412741230    0.04846034092616    0.90389873802783
H           3.59506672102218   -0.82799983964567    2.20423371803877
H           2.85105686109481    0.63661428333862    2.84757062122701
H           4.05911883775442    0.74628732114476    1.56569923934006
H           1.34099502016052   -0.62455340924985    1.27923178634822
H           2.51482756258422   -0.38239876779284   -0.01787402797381
C           1.45460940720614    1.39292403107044    0.57366267412682
O           0.32956036168711    1.20418611369737   -0.25757997221173
C           2.39740814658135    2.34697798105482   -0.15270410357183
H           1.13062075078010    1.86395747714984    1.52000897080265
H           2.78804880883980    1.86932909818774   -1.04776323695534
H           3.22123984066675    2.63969682475127    0.49083795731244
H           1.84729290696887    3.23573451914375   -0.45006402551784
H          -0.21843552623953    0.49900342569589    0.13120295740844
