30
-35.463687283174
C          -0.87187887834589    2.93491197441498   -1.86444217960015
C          -0.72259472319559    1.74684058795863   -0.92434296466171
H          -0.26423664469443    3.76432338572834   -1.51158939338647
H          -1.90829353316912    3.26378100167548   -1.90779194379699
H          -0.54729004936956    2.68270349588354   -2.87043609448950
H          -0.97605736209504    2.05545714744535    0.09193769315307
H           0.31083940407476    1.39754515572454   -0.92343912591027
C          -1.63336716347457    0.57274979864085   -1.28995846525137
O          -1.60566840651717   -0.32537928980220   -0.18335820811613
C          -1.18968857569547   -0.13790373535228   -2.56459721959597
H          -2.66494147423779    0.94233411250315   -1.41393510238105
H          -0.17690763312406   -0.51484925934901   -2.44053777944208
H          -1.21614131407997    0.54504495682476   -3.40783217796759
H          -1.85195546510058   -0.97489200243787   -2.78416129808899
H          -2.08390147051920   -1.12599835574903   -0.42683841441679
C           0.52146952718282    0.07509609425601    2.54280416118350
C           1.85216861716309   -0.32836869096537    1.91422194937308
H           0.64115568608845    1.00783430594717    3.08984856441143
H           0.17608345963280   -0.68231085774994    3.24211250348983
H          -0.24342289249850    0.22150996448037    1.78408124685124
H           2.56147238712585   -0.59265136584704    2.70126447004129
H           2.26407910861923    0.52219657232071    1.36599044493912
C           1.75646986342582   -1.50601739885254    0.92739672381694
O           1.14875271827241   -1.12408904906795   -0.28326766504705
C           1.05626525135200   -2.72185612375498    1.53775347619276
H           2.77791400594499   -1.79127774943483    0.64342550875140
H           0.01000252101336   -2.49702876072014    1.73177935519590
H           1.53804040777470   -3.00799892371279    2.46883429476486
H           1.10492019088425   -3.55882397752547    0.84495328910448
H           0.23671263756941   -0.84288321348270   -0.08987564911988
