30
-35.460559528954
C          -0.62299512879426   -0.59236364518366   -2.32916745922852
C          -1.56556628138532    0.60396464008120   -2.25356018620739
H          -0.14510572609307   -0.77750094852064   -1.37200016341182
H          -1.15679735424111   -1.48974077377607   -2.63090366474828
H           0.15019401275708   -0.39591739299160   -3.06859503040468
H          -2.10648990666355    0.69946380967934   -3.19729739952265
H          -0.98296597662028    1.51567982700031   -2.10819423158043
C          -2.59608807465165    0.54578680365911   -1.11892058245994
O          -1.94014166530867    0.91025016691309    0.09113685036736
C          -3.27136544833509   -0.81561355264947   -0.98094363374449
H          -3.36723856091546    1.30687031865926   -1.32888863808427
H          -2.55150076994433   -1.55696338808935   -0.64408536316880
H          -3.68484785852066   -1.12569017682288   -1.93635032445421
H          -4.08256109883672   -0.76392328005182   -0.25550553830681
H          -2.56214275626191    0.80305204428237    0.81949748327083
C           3.54154500152394   -0.18623166106482    2.52170849709433
C           2.41163503361411   -0.85901287027620    1.75520168510125
H           4.31650114937347   -0.91197452122742    2.75705762504169
H           3.17241196814594    0.23574323676522    3.45422926302881
H           3.99145059043659    0.61199929198865    1.93677731415601
H           2.03372970556907   -1.70835504753316    2.32743856797114
H           2.77986522829689   -1.24259871736196    0.80185505352455
C           1.22363406867330    0.06755456880753    1.48060360372081
O           0.17060182958896   -0.74570890228057    1.00652518927405
C           1.55861252369694    1.17040212246290    0.47746314963626
H           0.91458522147318    0.53858930984115    2.43178858084572
H           1.93430441809428    0.73392591727824   -0.44554900936169
H           2.30833227395658    1.84341814868407    0.88306314291022
H           0.66196997245728    1.74478951886778    0.25140465296516
H          -0.53356649109141   -0.15989504713517    0.67421066577755
