45
-53.208062574622
C          -1.38618452002618   -1.08533024440153   -2.70431521743302
C          -1.45273739124624   -2.27006031276150   -1.74714146117297
H          -0.80294808298347   -1.34492448065445   -3.58502776951406
H          -0.92268507541693   -0.22630251803313   -2.22590141432954
H          -2.38584214040660   -0.80097270670602   -3.02569961034413
H          -0.44242451477115   -2.54720329573286   -1.43538906560671
H          -1.89342856540272   -3.12918368010604   -2.25629542144278
C          -2.28388795913902   -1.97264874309198   -0.49302948106529
O          -1.76124213763288   -0.88325577240119    0.23700648385112
C          -2.38242351033919   -3.21423346568077    0.39493697895962
H          -3.29068620249758   -1.65450714539389   -0.78983864928941
H          -1.38637988438433   -3.54005067261007    0.68994757389734
H          -2.87520612763936   -4.02466891902321   -0.13484807518865
H          -2.95028157880094   -2.98325937081185    1.29286695556912
H          -0.83335100161286   -1.08430682054258    0.46726619089826
C           2.54910563746311    1.08659635864448   -1.68895913578105
C           3.08232197128579    0.07391882847614   -0.68033278206721
H           3.26366323360949    1.89527004583760   -1.82408489634596
H           1.60564924533495    1.51576191942799   -1.36024846366568
H           2.38745931938055    0.60829439004871   -2.65316384329548
H           3.32035975910343    0.57269343180048    0.26218888839892
H           4.00185792868603   -0.37080799654330   -1.06546921303233
C           2.07637361589408   -1.04638397211754   -0.39041907811307
O           1.03674361681283   -0.60388616952298    0.45952593614135
C           2.74527712050573   -2.23553794669136    0.29407798349429
H           1.64356740854418   -1.38200430942075   -1.34931867650334
H           3.22371424578294   -1.90887981209149    1.21383301399798
H           3.48965884822691   -2.68109342988919   -0.35968133814811
H           1.99881896079684   -2.98541773994242    0.54422045845732
H           0.71912127720815    0.26569925600732    0.14500459923723
C          -1.38889503952717    2.71580647604858    3.19971639207524
C          -0.97634196499157    1.77611480359931    2.07411550202346
H          -1.61930119768320    2.14480030091019    4.09582427369531
H          -2.27370713708786    3.28337513328747    2.91845861417101
H          -0.59288481563043    3.41594150116168    3.43982538086498
H          -1.75875869361461    1.02731416630311    1.92608250994157
H          -0.06152309004194    1.24609405908382    2.34738802826429
C          -0.75258502389127    2.49828508623358    0.74105647463499
O          -0.55362316602825    1.56186805775742   -0.30680005245189
C           0.46895015825078    3.41123135167457    0.76683629525477
H          -1.64570756436493    3.10140744270842    0.50712208228493
H           1.34679038624020    2.85077453055413    1.07950339879280
H           0.31130241920041    4.23918992922353    1.45054193139179
H           0.64621521757121    3.80893580887890   -0.22928175874833
H          -1.24391408473762    0.87554684650233   -0.24210094275697
