45
-53.205214072607
C          -3.78553962697461   -0.15948454027982    1.17050404509677
C          -3.39530750906451   -1.57355280190578    0.75687510583668
H          -4.83466738719644   -0.12417624492556    1.45401958565922
H          -3.62897906399027    0.52869660164927    0.34411138138207
H          -3.18647227620622    0.17112693318578    2.01650894939061
H          -3.97838146485840   -1.87121836612513   -0.11617702192821
H          -3.60983769013783   -2.27024727044558    1.56888144577714
C          -1.91022759371315   -1.68018038009848    0.40327403411311
O          -1.66138632940269   -0.82360715047625   -0.69637522906206
C          -1.51560365853688   -3.11801867000125    0.07213376437606
H          -1.31582143591691   -1.33808180973594    1.26864493683283
H          -2.09299264381330   -3.47442296872799   -0.77796530023423
H          -1.70084257327215   -3.76833957028343    0.92281287590692
H          -0.45809897192908   -3.16717920567818   -0.18100567869867
H          -0.73585773998441   -0.94925162863082   -0.97837003294944
C           3.43973538581307   -3.02883772689198    0.53458281301873
C           2.74322259509137   -2.14093356722685   -0.48684975744200
H           3.90588227328240   -3.87561240436452    0.03665272229135
H           2.72513604663746   -3.40937875242605    1.26173776392511
H           4.21291829213397   -2.48095221461469    1.06696991333922
H           2.02344864359233   -2.73363688272620   -1.05604729921370
H           3.46955149281006   -1.74126672986868   -1.19657206106643
C           1.98209607657079   -0.97240892369438    0.14601771866350
O           1.12749977952498   -0.44303126409033   -0.84992641441404
C           2.91001667423941    0.11117313442740    0.68801055848702
H           1.36756168171826   -1.35862205851123    0.97911561849673
H           3.53773681296021    0.49693234424352   -0.11270941261852
H           3.54386535383362   -0.28413666274565    1.47613163960107
H           2.32013879004015    0.93023761284412    1.09592020070090
H           0.75712374204208    0.39926479410350   -0.50891465690629
C           0.71312666088238    4.16034551428024    0.67769013046357
C           0.55199876409442    3.53124088924098   -0.70067547555192
H           1.62769572857963    4.74651673848665    0.72564735581794
H           0.75366735903734    3.38395155192294    1.43706573297723
H          -0.12890783124316    4.81242703407478    0.89940390410569
H           1.43345044636947    2.93098881059303   -0.93505896346366
H           0.45978639579719    4.31159120358110   -1.45763823921837
C          -0.68040296813826    2.62623481106495   -0.77545639837585
O          -0.49148315505787    1.55968387727420    0.13825353553116
C          -0.89780499880277    2.09886575988664   -2.19230644861689
H          -1.56699626777102    3.20363102467740   -0.46430172657059
H          -0.01243459767239    1.56706148095982   -2.53379483901874
H          -1.10091783376549    2.92067064788723   -2.87348684876948
H          -1.73982048403932    1.40975711310307   -2.21190669920592
H          -1.17687489356322    0.88617991698899   -0.03542732846670
