45
-53.205928133566
C          -2.11206547071077   -3.20868797864263   -1.90980185926341
C          -1.84569667593145   -2.98304982638426   -0.42661651112029
H          -1.87157369334836   -4.23115978885439   -2.19071236633581
H          -1.50501864200898   -2.53057477120426   -2.50483196208965
H          -3.15856404181204   -3.02241507902498   -2.14099425016971
H          -0.81183288020418   -3.25272165613076   -0.19530009399968
H          -2.50167686044868   -3.61830484738656    0.17091800452526
C          -2.06889898727775   -1.52106649983635   -0.02265939866063
O          -1.20910562269497   -0.65777838354415   -0.73879641044966
C          -1.89445030610123   -1.34011574671147    1.48559354499576
H          -3.07998360038392   -1.21325835717236   -0.31550167843235
H          -0.90482201154886   -1.67788660089738    1.78654852802041
H          -2.63959715582639   -1.91814768782539    2.02511078968043
H          -1.99947878237595   -0.29168898730670    1.75515607785746
H          -0.28735312339661   -0.90110955349080   -0.53029772616370
C           2.24091541211403   -3.14265486883209    0.76231042281253
C           3.01555077034408   -1.90767916694723    1.20544158560751
H           2.91883347544582   -3.97473472880399    0.58797184985225
H           1.70776163324111   -2.93144375888690   -0.16102838721232
H           1.52179635014507   -3.43768303203791    1.52461696032333
H           3.72845932312397   -1.62946810234097    0.42754878361893
H           3.56917232691867   -2.12431016005915    2.12062896316125
C           2.09438424108082   -0.71205786764281    1.46128134172511
O           1.44115376830817   -0.39043192412843    0.25033397686555
C           2.87329233837933    0.48930030448675    1.99282137619084
H           1.33919383069745   -1.00020111456940    2.21501303195396
H           3.62767136636484    0.79144272597145    1.26939972047006
H           3.36305362491052    0.24130501667024    2.93062824959047
H           2.19536676584745    1.32412139271255    2.16263837947636
H           1.00635611817597    0.47824492916153    0.36521870074115
C          -1.37247737595931    4.10641118119595   -2.42905731823092
C          -1.49724161015893    3.17930652141159   -1.22734086253932
H          -2.35643004372813    4.31953145921231   -2.84003793368963
H          -0.76982936539458    3.64104305286986   -3.20611724900725
H          -0.91003988464641    5.04999444605958   -2.15159417350620
H          -2.05410445375531    2.28558524296882   -1.52355285910279
H          -2.05706730196923    3.67363348509002   -0.43020510646995
C          -0.14402892803208    2.72279956171367   -0.67098464684198
O          -0.33397795865317    1.74031046078133    0.33364219984202
C           0.65111586082200    3.86067456542842   -0.04090904877084
H           0.44428666920110    2.28367991903410   -1.49429194834613
H           0.06815048633853    4.32297325061865    0.75177851150937
H           0.90564895345648    4.60810112477427   -0.78533187878110
H           1.56942232519327    3.46904966801981    0.38941327136200
H          -0.89627096373797    1.03112238048419   -0.03805060099959
