45
-53.204159814459
C          -4.28771618550188   -2.21679729219354    2.10518327780106
C          -3.55528547330818   -1.60002852013579    0.92199716395800
H          -5.34381810999430   -1.96133015583918    2.06405848458511
H          -3.88041983813718   -1.84367467137668    3.04241797053922
H          -4.20092183901688   -3.30021963382959    2.09879566754691
H          -3.72918893268315   -0.52201869047572    0.90723832053870
H          -3.94059764682811   -2.00839886151731   -0.01410974781152
C          -2.04076309777831   -1.81955070658196    0.96480927212145
O          -1.47317083939872   -0.97652489529788   -0.02392755123702
C          -1.64367836366811   -3.27177822718322    0.71857604011913
H          -1.66264450199155   -1.51184624625182    1.95483741364172
H          -2.02215116544515   -3.60339405648099   -0.24625784164104
H          -2.04174629747981   -3.91618099478767    1.49647571806689
H          -0.55852367913494   -3.35851281838412    0.71919981644030
H          -0.53482909774795   -1.23271872989373   -0.12957205921342
C           3.59112366126740    0.90124302809587   -0.15775310113069
C           3.60260675104042   -0.60314175699935   -0.40601836923931
H           4.56772093197972    1.23342884195124    0.18636319132383
H           2.85734496245736    1.16898569711260    0.60008246133900
H           3.35412385828950    1.43507564436742   -1.07682728709202
H           3.85978534629218   -1.12664065114546    0.51702188251577
H           4.35925702589636   -0.84262155941635   -1.15528487280095
C           2.24736223146641   -1.12915663022577   -0.89497818829910
O           1.27050163102372   -1.06118452151941    0.12535503835611
C           2.34271975984730   -2.58914810988948   -1.32757955708192
H           1.91821354251915   -0.52254858928538   -1.75584335169178
H           2.67044629338821   -3.19853057983878   -0.48919837487456
H           3.04859697064512   -2.69695956756079   -2.14586512552036
H           1.36748631681385   -2.94282480024970   -1.65258784224764
H           1.16209774445661   -0.13489786272194    0.40832226803328
C           0.20281483863046    4.84287716242314   -0.51577336998048
C           0.60094958318792    3.51574783677744    0.11489446353660
H           0.93582213154537    5.60733845971161   -0.26942183457253
H          -0.76771881363005    5.16639461176369   -0.14595432524242
H           0.14880784118836    4.76087164009313   -1.59837118130673
H           0.71667883279500    3.64242529298132    1.19315823952836
H           1.56216785351170    3.18870556231819   -0.28506286663787
C          -0.43381295236711    2.40944762543926   -0.10738193999661
O          -0.10190356714435    1.33932642640198    0.76047163206352
C          -0.48450757412108    1.92892250417760   -1.55685956960879
H          -1.42746483282210    2.79745607716506    0.17204777261400
H           0.50728902251949    1.62551700878448   -1.88610182509352
H          -0.84595114304710    2.71771440658520   -2.20967228322368
H          -1.15437799860493    1.07469097482951   -1.63592987498373
H          -0.76272488090852    0.63446042809782    0.61502634585772
