45
-53.207128720239
C          -2.74158756151836   -3.94699896427346    0.67332334877399
C          -1.65695724835685   -3.02145310081376    0.13878888701073
H          -2.47796181000859   -4.98365991885741    0.47656981912235
H          -3.69396818962926   -3.73808671006882    0.19063752106099
H          -2.86523202912981   -3.82789209472698    1.74645213764718
H          -1.49337387461396   -3.23439528998635   -0.92076373057307
H          -0.71796063316818   -3.20700940744399    0.66664980488847
C          -2.00262991218860   -1.53177499955537    0.26481732092817
O          -1.08389505815541   -0.76270973460915   -0.48750592540651
C          -2.02143158472606   -1.06648521507449    1.71957574917587
H          -2.97948350869607   -1.34534090746967   -0.19853803668222
H          -1.04861003789918   -1.24421119044720    2.17389282685546
H          -2.78291536445014   -1.59614021317310    2.28358882013251
H          -2.23357098292055   -0.00098818308656    1.76829902485564
H          -0.19940905827540   -0.90664355652214   -0.08599344074613
C           2.74855668640505   -3.07725092299979    0.82844058837634
C           2.55403403644827   -2.14615860295009   -0.36182192456207
H           2.76011673466924   -4.11474956160564    0.50329025400488
H           1.94001952881584   -2.94157350665238    1.54172518405238
H           3.68824187386373   -2.86099096199292    1.33187550283309
H           1.64112233090497   -2.41892402238576   -0.89535919428062
H           3.39379876258129   -2.24369651418512   -1.05160558562070
C           2.44082325996935   -0.68176258000167    0.07059251495253
O           1.29379589760998   -0.56344389031017    0.89598849555732
C           2.34189197429231    0.24685274153561   -1.13653615765414
H           3.33120386867134   -0.41302242937671    0.66291008705254
H           1.48255454926077   -0.02520695071276   -1.74582333519709
H           3.24153295976627    0.17825645486996   -1.74221773272491
H           2.22083093762765    1.27605933064041   -0.80456265253373
H           1.07485655451098    0.37652692706490    0.99751054121242
C          -0.26059796394561    5.41896548006541   -0.44508202118227
C           0.22387755936880    4.06339576377039    0.04913682038168
H           0.40382203015982    6.20405392005928   -0.09201886727741
H          -1.26225247955257    5.62470108614020   -0.07389533924318
H          -0.28104579273652    5.45465356412108   -1.53125331460146
H           0.31357363000489    4.07987546598692    1.13726703606740
H           1.21319826145111    3.84922147011796   -0.36109561343653
C          -0.71882323271820    2.91277589743169   -0.31491051499802
O          -0.28900537644478    1.77866569616906    0.41300038766620
C          -0.74245283321612    2.62289439052183   -1.81436702528215
H          -1.74046979925706    3.17768433758536    0.01048142438597
H           0.26870222409317    2.47207672365769   -2.18600709631841
H          -1.19920579683561    3.44612987734505   -2.35559726150402
H          -1.31858374669759    1.71915999232106   -2.00556757666366
H          -0.76512988533175    0.99862040988032    0.06570844949506
