45
-53.209012596001
C          -2.87321510970566   -3.39579885121081   -2.22989065218150
C          -2.14005380356013   -2.21261296629907   -1.61200583926609
H          -2.81100317937186   -3.34771219495127   -3.31466584749449
H          -3.92353554537148   -3.38427566902445   -1.94604544607140
H          -2.43914984841123   -4.33878933863116   -1.90847581019591
H          -2.52712571571160   -1.28618713183491   -2.04302430083748
H          -1.07452386559474   -2.26780774948414   -1.85008971096204
C          -2.29491416183815   -2.11999195220687   -0.08763159102355
O          -1.75779197746837   -0.90113873980921    0.38046016204629
C          -1.64092635440419   -3.30060075978885    0.63000655002264
H          -3.36086481734960   -2.08103272128217    0.16936518876320
H          -0.59362329232295   -3.37569135883972    0.34162485592849
H          -2.14427214414688   -4.23068582400219    0.38516455040342
H          -1.69740460001493   -3.15007062684192    1.70605863018960
H          -0.80177607723031   -0.90693144341621    0.16963528813118
C           4.30373672613853    0.00992719308077    1.52577619755004
C           3.07375973556710    0.37936374258069    0.70755050231237
H           5.10385812515419    0.72258840882214    1.33932798484928
H           4.65874261523832   -0.98225596682192    1.25515218645830
H           4.08436860560764    0.01948231689230    2.59015216324534
H           3.35262458717716    0.45398413363594   -0.34665683301453
H           2.69738184637542    1.35558700044117    1.02405850673435
C           1.93399232908059   -0.64233995329588    0.81501133314655
O           0.95204681522442   -0.36771733105843   -0.16582250828439
C           1.30712304745790   -0.66052470922339    2.20777014768749
H           2.31710408253229   -1.63992249273280    0.56600828997611
H           0.92773465433732    0.32981925334125    2.45211314606798
H           2.03632679620082   -0.95945252171313    2.95441383747687
H           0.47727274174629   -1.36246545996204    2.23445745995485
H           0.58080547686850    0.51641427698252    0.04488655810982
C           0.84935444169089    4.24180949475793    0.30434252027745
C           0.32534414859378    3.37306350274929   -0.83245979945552
H           1.78345440168231    4.71989043902550    0.01951804880183
H           1.02152172175007    3.63301528717929    1.18786483378982
H           0.12714462505134    5.01484454441297    0.55738109857726
H           1.08716966234116    2.64510184661108   -1.11891686243469
H           0.10282316273870    3.99305727384635   -1.70222619876472
C          -0.94288181567055    2.61334295479989   -0.43437180332317
O          -0.60941721819263    1.75329388778310    0.64387632408464
C          -1.50682542631239    1.82038392409141   -1.61014490743150
H          -1.69972367934722    3.33596705242667   -0.08725312565917
H          -0.75781195829338    1.12647743855072   -1.98565195194910
H          -1.80155467860367    2.49144884851929   -2.41233071887897
H          -2.37755245627835    1.25028885186082   -1.29222919561816
H          -1.32774272335440    1.11485449004103    0.76791633826051
