45
-53.207614071902
C          -2.13043906593461   -3.55226507864605   -2.06064998335455
C          -1.32565432709750   -2.96290320080618   -0.90997702080120
H          -1.67073955086176   -4.47633898599380   -2.40314863868081
H          -2.16439549718943   -2.85635812957766   -2.89640735822137
H          -3.14931265391981   -3.77446959021991   -1.75444159399642
H          -0.28462383044764   -2.84643525621005   -1.22529616761097
H          -1.34142586463370   -3.64302753321700   -0.05546080617931
C          -1.83236733561037   -1.58901685518324   -0.45493233517117
O          -0.94959065445453   -1.03159315544882    0.49959403041313
C          -3.21207630742233   -1.65446996173903    0.19108525012224
H          -1.87795310617256   -0.92571305923017   -1.33671221919887
H          -3.19330003457947   -2.34586828390109    1.02959404515636
H          -3.95823048974624   -1.97716168448747   -0.52798602743569
H          -3.48757352610447   -0.67111573784357    0.56443632687306
H          -0.04912014676604   -1.02045970239720    0.11641688983715
C           5.16065279159092   -0.20321663995088    0.77038212164529
C           3.82526433887825    0.29432776794683    0.23329709039514
H           5.93732332387620    0.53387470082856    0.58015984203194
H           5.44494207774758   -1.13387996862258    0.28394565200763
H           5.11307119361686   -0.37461260540536    1.84246105764756
H           3.93459655383032    0.54755926488812   -0.82413543818472
H           3.52547125218165    1.20098336850195    0.76528806848890
C           2.69472348507540   -0.73597149646508    0.34942421735931
O           1.57698300105980   -0.30749623424524   -0.40817953395638
C           2.29157307497747   -0.98804204492572    1.80066130385960
H           3.01094022299688   -1.67620267086617   -0.11891833297962
H           1.96886095716456   -0.05492094984327    2.25817293774272
H           3.12452064253047   -1.39505025396664    2.36542013232266
H           1.46607491318865   -1.69458704729622    1.84275686851929
H           1.26201781028210    0.52738810830143   -0.00690502461741
C          -1.67300739933504    3.49855131809776   -1.63379091957637
C          -1.12085124020204    2.28784595850273   -0.89264671247798
H          -1.89892630368312    3.23449418513421   -2.66427787026366
H          -0.94524666693660    4.30711019098221   -1.63923885909795
H          -2.58670168720416    3.86064627171179   -1.16963963134767
H          -0.25689354616259    1.89734657389145   -1.43628426324101
H          -1.87720614141543    1.50015833353239   -0.85871170589845
C          -0.67507119884042    2.60496258065375    0.54141955632897
O           0.09287712217242    1.53966423189383    1.06783442968076
C          -1.85800423191818    2.90759085957451    1.45853742174803
H           0.00778431217300    3.46322937596836    0.52766912348989
H          -2.55379165310926    2.07006465102376    1.45581196301442
H          -2.37979426358783    3.80298168281101    1.13524373220839
H          -1.50344894737090    3.05935432211305    2.47534415390950
H          -0.48193140263544    0.75304248013962    1.12278432748402
