60
-70.952607138545
C          -2.02816173010196   -1.69991404471490   -2.32417985070644
C          -1.53429755690169   -2.74702490307600   -1.33267706718306
H          -1.81043266358661   -2.01252626658903   -3.34316723402977
H          -1.54317129754480   -0.74319608754300   -2.14621711929218
H          -3.10369361703867   -1.56538652584897   -2.22890713199142
H          -0.45908538041242   -2.89162249255761   -1.45925364472258
H          -2.02637010074098   -3.70145527243510   -1.52882487675131
C          -1.80287233130164   -2.35364143404087    0.12589554793423
O          -1.16502076564974   -1.14185467368548    0.46787235151198
C          -1.37270149205970   -3.46759834917812    1.07889972813288
H          -2.87583298922674   -2.15774224595501    0.25196076640483
H          -0.30475375933756   -3.64888591475361    0.97401003870747
H          -1.91208848674562   -4.38602985857046    0.86409842664191
H          -1.57218457627385   -3.17294446637896    2.10633357191339
H          -0.19102298916840   -1.28196497262717    0.44236428304004
C          -1.25267545657193    4.32451132752016   -0.45020165861080
C          -2.43223720945983    3.46735687584109   -0.89263733406126
H          -1.26701705593060    5.28244278795511   -0.96475892621548
H          -0.31760797728688    3.82218727815879   -0.68236467228609
H          -1.29630464771177    4.50919034665368    0.62170837512466
H          -2.36387294295044    3.28299040451987   -1.96601932065894
H          -3.36756343469487    3.99269881544922   -0.69162172294269
C          -2.46955288675944    2.11492113660718   -0.17602416256447
O          -1.30789014233884    1.39318668234931   -0.53701157495021
C          -3.72927170068966    1.33110405471312   -0.53798645621842
H          -2.46427208806907    2.28777684463557    0.91380679478820
H          -3.76558589273353    1.16166404638446   -1.61184657347862
H          -4.61753863281419    1.87955053266692   -0.23629047268295
H          -3.72429167307202    0.36826086822213   -0.03113629939704
H          -1.39989253371180    0.46840438057393   -0.22360552859809
C           3.77190163980193   -3.50836489234793   -1.39042410305828
C           2.59314771443520   -2.99083159841105   -0.57824699901422
H           3.81394090279768   -4.59383729590734   -1.33812671478326
H           4.70700167273093   -3.10970780298625   -1.00312621871765
H           3.68176622707238   -3.22190234378755   -2.43508654665065
H           2.67079367657818   -3.35163158625860    0.44989031484819
H           1.66122923788638   -3.37787472524410   -0.99585959268897
C           2.52275909461514   -1.46184336625642   -0.52401078600638
O           1.59042692066531   -1.11412146026873    0.48408121663552
C           2.13103126533729   -0.83227784942846   -1.85905980214586
H           3.51497197087619   -1.07941494423624   -0.23136578712901
H           1.18479888991541   -1.23909560691632   -2.20794021585516
H           2.89430158143411   -1.01857264896594   -2.60869101824560
H           2.01848217174202    0.24235039797397   -1.73241496830434
H           1.54021430976681   -0.12959675446286    0.50333374519679
C          -0.37040640375867    1.26730993222605    2.90337145132128
C           1.13581406742179    1.47956285111780    2.80645961171232
H          -0.61926683297337    0.79472031158852    3.85076154697346
H          -0.72437357402004    0.62192190635957    2.10405364335758
H          -0.89344490550498    2.22097623522794    2.85149423123855
H           1.63654691639182    0.50991628809902    2.78420611331541
H           1.48438051571616    2.02163478796602    3.68796986590611
C           1.55744985681534    2.28106351222779    1.56637858504229
O           1.28424413910215    1.58799505938592    0.36155202995723
C           3.05992634222865    2.55497451116463    1.59148210239297
H           1.01972535570201    3.24100654881384    1.56140119835691
H           3.60389995681269    1.61408562871255    1.61927798580770
H           3.32516160019087    3.14547624292431    2.46353935012932
H           3.35018055870172    3.09489570153343    0.69396149164077
H           0.33065914233176    1.63672398591511    0.13892011192138
