60
-70.953279802835
C          -1.76469524888758   -2.94806386039266    2.64812684560171
C          -1.23036339983268   -1.97759519527481    1.60305802441236
H          -1.30059616186039   -2.75084521475716    3.61167037094037
H          -1.54255668720438   -3.97505249938724    2.36524411729451
H          -2.84073303581495   -2.84797124214745    2.76448239539583
H          -0.13903690563753   -2.04181615235201    1.58065440296628
H          -1.50439762314611   -0.95553535228722    1.87108277633394
C          -1.74406037985843   -2.26603601972868    0.18904714730052
O          -1.06585949936978   -1.45841992822009   -0.75853441304784
C          -3.23604031992290   -1.98555053852562    0.04174155261369
H          -1.55134208317315   -3.32527935390262   -0.05173061379797
H          -3.44869485180907   -0.95906642146577    0.33103353569320
H          -3.81435112103028   -2.66079580101087    0.66433135449789
H          -3.53388754944224   -2.12459196892244   -0.99443329995070
H          -0.10406545841239   -1.47020741337127   -0.54678390608154
C          -2.57097433988082    0.36278333930969   -3.10945226068783
C          -2.81779416151422    1.59707226308547   -2.24864833462571
H          -3.49302579670930    0.05171552937270   -3.59530504156025
H          -2.19999651135324   -0.46459218993758   -2.51035310079646
H          -1.83551773604151    0.58287107271653   -3.88091391438454
H          -3.61770952912778    1.39881328027415   -1.53165648896781
H          -3.13610437154402    2.42459102665985   -2.88550987077183
C          -1.56960935620579    2.02633698204708   -1.46783905983802
O          -1.37447667905728    1.22322389315967   -0.31751588154987
C          -1.67970880144042    3.47130007256402   -0.98702783157585
H          -0.68862314523817    1.93419493957585   -2.12435798966533
H          -2.55320406325095    3.58142326744013   -0.34890653431837
H          -1.76698269525137    4.14648318366288   -1.83321592030143
H          -0.79576056259118    3.73887780301314   -0.41349486809647
H          -1.37448201581692    0.27197607168395   -0.57135732580669
C           3.63580199610462    0.60918603758885   -1.74786445606057
C           3.69825164233967   -0.85329981261330   -1.32042217757478
H           4.62023661143453    1.06585287860072   -1.67432084672087
H           2.94674206997996    1.16975588486259   -1.12168187699947
H           3.30012797761600    0.68547171965905   -2.78032409180507
H           4.11602650462130   -0.93196348546896   -0.31427478439496
H           4.35508376925051   -1.40055666716396   -1.99920206509967
C           2.31841346594300   -1.52133926274344   -1.32330190933770
O           1.57650386088368   -1.20008572998777   -0.15894222031607
C           2.43180737455042   -3.04320650567054   -1.37012567641810
H           1.76044689592824   -1.17787236724531   -2.21068636459739
H           3.00459245006789   -3.39607824119145   -0.51603490515095
H           2.92240167291903   -3.35895821548744   -2.28618162483047
H           1.44080230302096   -3.48835708709172   -1.32985981930830
H           1.60734774468143   -0.23005079858084    0.00212203690905
C          -0.70744200068980    1.78849626006534    2.83756591442825
C           0.71589525977638    1.24270742892335    2.79261467454843
H          -1.28108471071655    1.27490646306089    3.60596035553668
H          -1.21172784257469    1.65298223409366    1.88416915163488
H          -0.69751121664908    2.85116841373191    3.07344909274309
H           0.69892389941563    0.16872173076179    2.59734912853864
H           1.19194319247054    1.40118027232231    3.76224796958815
C           1.57848238584332    1.91306317609533    1.71698027060481
O           1.25336348260408    1.46290379552453    0.41476747399940
C           3.05859110538023    1.61252366342494    1.94244500895090
H           1.42370153181221    3.00425242892059    1.76275121105562
H           3.21858506099734    0.53700405636541    1.94293638640616
H           3.38597203218330    2.02138098482926    2.89402798113882
H           3.65279678264975    2.05342999218903    1.14644904950243
H           0.27957508858221    1.48653727933875    0.28395124579937
