60
-70.955137239668
C          -0.30531109985130   -2.67778210824558    2.38277910485880
C          -1.61115996998673   -2.03280207213703    1.93019141287645
H          -0.05093625196176   -2.34629987774158    3.38716845214027
H           0.51461436234635   -2.41952758583206    1.71776480981566
H          -0.40582494127376   -3.76138910348024    2.39824759558424
H          -1.53032491059961   -0.94439295788724    1.97947214967392
H          -2.41456106157417   -2.33906178090855    2.60296285668488
C          -2.00409257044756   -2.42171055224063    0.49880135339724
O          -1.24736541303744   -1.71635143446638   -0.46949513837283
C          -3.47460899024058   -2.10816957377547    0.23269078321062
H          -1.83632241400317   -3.50173560167015    0.36063635621193
H          -3.67136305930908   -1.05818707325876    0.43563965749334
H          -4.11179293139550   -2.71873047724459    0.86580988060606
H          -3.71177719825031   -2.31333713917144   -0.80820127674774
H          -0.28710531145511   -1.83043319370950   -0.29187206855974
C          -3.15724364425378    1.65687997641985   -3.40464663151703
C          -2.93594612510604    1.13299122562662   -1.99203535095005
H          -4.04265124119195    1.19804538561770   -3.83830662762594
H          -2.30368321191301    1.41878912858976   -4.03595867043660
H          -3.29893105887665    2.73450285434530   -3.40785251827945
H          -2.89334076743043    0.04114101301127   -2.01951252480441
H          -3.77309153639063    1.42039420260266   -1.35185111137950
C          -1.63306130107112    1.63236875373834   -1.35873619890005
O          -1.40289833409748    0.97247509951985   -0.12545023063029
C          -1.64712438582168    3.13001504832442   -1.07236141641215
H          -0.80155721836209    1.40715208073795   -2.04704211706642
H          -2.47799963270542    3.37277679359029   -0.41426910116615
H          -1.74145986345427    3.69472693604863   -1.99425685557538
H          -0.72054136287956    3.41602009233840   -0.58082316102470
H          -1.44625209227587   -0.00209530515157   -0.27886263404969
C           2.11975751258978   -0.81667453384754   -3.76195868960389
C           1.51864290112913   -0.68266515262220   -2.36892524694277
H           1.52777643916793   -0.25365918435251   -4.48002538330026
H           2.13322300611914   -1.85920125435459   -4.07283933652934
H           3.13697343886837   -0.43502396762825   -3.79040780630543
H           0.46858269424193   -0.98338927390875   -2.40194871835568
H           1.56266406129538    0.35955470200154   -2.04261041380981
C           2.22164358709494   -1.54701078543220   -1.31440508403605
O           1.47087275669340   -1.55312469426723   -0.11402291200386
C           3.64589546422098   -1.07306067973924   -1.03600161037236
H           2.23768354838360   -2.59199454959729   -1.64812085593530
H           3.63050832547474   -0.02803284759021   -0.73168533055054
H           4.26970416750287   -1.17995472891801   -1.91794891743730
H           4.07794267901450   -1.66483474091201   -0.23188829597413
H           1.46010358838811   -0.62456798978695    0.22161879384724
C           2.82283826952818    1.03937624921144    4.06748811373005
C           2.65291396639411    1.14380766135519    2.55853590269047
H           3.87643216792962    0.94219101540804    4.31806554263681
H           2.29754530238290    0.16679032746407    4.44991472490618
H           2.43563778727746    1.92262576978506    4.56874079083506
H           3.12584363981421    0.28276751209005    2.08154070762412
H           3.14700457458613    2.04279129720965    2.18508738684973
C           1.18774444713200    1.16927859010393    2.11587155181939
O           1.17800139389265    1.02383720970261    0.70521759607001
C           0.46257346418133    2.44871525383367    2.52233167742830
H           0.66766981928106    0.30824579168459    2.56751294855523
H           0.98490360927502    3.31661456626019    2.12513500288179
H           0.40637662173496    2.53186068219591    3.60345407985539
H          -0.54931196509197    2.43558241918884    2.12165567648776
H           0.24556666836052    1.12288278191015    0.39998732583649
