60
-70.961084561077
C          -3.98745998930949   -1.71245315903958   -2.78768121527076
C          -3.28662538067210   -1.13423143239298   -1.56631635881986
H          -5.02830137035543   -1.39797010190963   -2.80371849586901
H          -3.95794268381421   -2.79979427195439   -2.76717858597268
H          -3.51665530119573   -1.37240036031349   -3.70637969025737
H          -3.82681561161424   -1.43086566137029   -0.66435962510013
H          -3.29281391428548   -0.04401971727637   -1.61788834063072
C          -1.84022822658922   -1.61420927320080   -1.41599029998619
O          -1.40858494171143   -1.24670098650801   -0.11550251204142
C          -0.91103097090159   -1.02478569922729   -2.47342499093934
H          -1.82157370189142   -2.71352742906511   -1.49379561342096
H          -0.94054368383970    0.06196457560821   -2.43296185427210
H          -1.20402412904840   -1.35171615967505   -3.46640504699180
H           0.10880545818481   -1.35275507260848   -2.28577592530982
H          -0.45374104058828   -1.47731428317189   -0.04136148678943
C          -3.68622284929645    2.69819156873162   -0.06030727076203
C          -3.24263633830271    1.80772129202941    1.09416167786507
H          -4.74307078583439    2.55502901961793   -0.27228438391024
H          -3.11528939633876    2.46184083799439   -0.95543935609089
H          -3.52000523831175    3.74607616204412    0.18084950798934
H          -3.50454018855197    0.76872501790097    0.88167122554681
H          -3.75372701388804    2.10650324846497    2.01072984569267
C          -1.72858156945059    1.88153706560273    1.32133336397576
O          -1.02589384493702    1.44307063157182    0.17591993538242
C          -1.32251265150604    1.06558946117484    2.54786976321432
H          -1.43286388754225    2.92971024064105    1.45754615441100
H          -1.59459720677561    0.02310172959782    2.39622160148273
H          -1.82570937988809    1.43785097035937    3.43584537561521
H          -0.24802876304124    1.12633131669534    2.70224185241749
H          -1.26483345573854    0.49560174986901    0.03016505947253
C           4.08805413687884   -3.20019479338478    1.97369140728814
C           3.37264293443513   -2.20643642654958    1.06855095336073
H           5.16496889344613   -3.07572073079607    1.88716579691118
H           3.83766648174111   -4.22113483752442    1.69305083532269
H           3.81342938740602   -3.05129776392736    3.01459253037905
H           3.74388694052890   -2.31789800440761    0.04667319282546
H           3.58725748214951   -1.18494083108355    1.39206439616891
C           1.85118739002549   -2.39350031529730    1.03308337600435
O           1.30019555869261   -1.60766756620393   -0.00756436171817
C           1.19314223692186   -2.04134003644144    2.36494642698609
H           1.61703594062235   -3.43140171238205    0.76504648621434
H           1.43173907953206   -1.01286169998464    2.62781251642667
H           1.53959473884504   -2.70192910897480    3.15347680323130
H           0.11306909612558   -2.13798475677684    2.28144318830219
H           1.50911023155451   -0.66648471050309    0.20139078143161
C           2.70950206889054    0.72566851741954   -2.22068157111240
C           2.12247590484156    1.96001613173009   -1.54597419862289
H           2.47378372768835    0.72896026430794   -3.28241744952269
H           2.30747272316686   -0.18346356165118   -1.78293709378482
H           3.79196606917479    0.71167169488663   -2.10901261740609
H           1.04134245597069    1.98882980123292   -1.70152586343575
H           2.55301335591906    2.85686167202907   -1.99504722916908
C           2.38615611888373    1.99567399742562   -0.03514466736603
O           1.62934189385479    1.01610683784232    0.64601130979555
C           2.08079428371396    3.38185638276550    0.53321543185554
H           3.43473102585316    1.73999464151990    0.16225903788745
H           1.05014996257695    3.64931558859165    0.30830184989886
H           2.74204496531984    4.12778226177465    0.10122369931258
H           2.21307914017921    3.37867846950775    1.61291933910031
H           0.67721413209270    1.23673931467487    0.50560138280512
