60
-70.950510156419
C          -2.83357788925869   -3.74318127701527   -1.04059502988877
C          -1.86842135987558   -2.62830796329460   -0.66035486772620
H          -2.92513956875372   -3.80603526344822   -2.12259349017917
H          -3.82028997147441   -3.55236648465515   -0.62389706286358
H          -2.48585022641170   -4.70559837553226   -0.67447915700810
H          -2.20799386632272   -1.69391702082737   -1.11351285539311
H          -0.87491392734741   -2.84810760988334   -1.05709057361116
C          -1.76307821667722   -2.40509492223494    0.85565092495133
O          -1.12798243959521   -1.17375696789810    1.13415526167954
C          -1.03623040547492   -3.54679193174656    1.56140912581339
H          -2.77343749675292   -2.30204992819126    1.27244685526067
H          -0.02660180375401   -3.64357031504147    1.16640264358028
H          -1.56448070902422   -4.48576319596586    1.42689615131056
H          -0.96866222049339   -3.33323835609119    2.62538278751956
H          -0.19155721930326   -1.22744436801683    0.84045309222287
C          -3.76823883834114    0.92998699022283   -2.35650908227921
C          -3.37462823600776    1.15824326854598   -0.90295904297712
H          -4.79994117087073    0.59153755029650   -2.41627251782980
H          -3.13305719707049    0.17224426655881   -2.81177332188188
H          -3.67805253993375    1.84511195751856   -2.93579225321479
H          -3.56334557133443    0.24535562464383   -0.33137226311372
H          -3.98838209765402    1.94975204416142   -0.46885313131740
C          -1.89600907021575    1.52765182206079   -0.72588031654329
O          -1.54208237964322    1.47617821394845    0.64675310355416
C          -1.57799684091881    2.93338252792132   -1.22230564478375
H          -1.28026168472974    0.80338130592198   -1.28431301747146
H          -2.16888154729921    3.65903824306488   -0.66923702181582
H          -1.79696837751619    3.02389362750032   -2.28150899339346
H          -0.52471387640354    3.14937861130550   -1.06235686203643
H          -1.58427937497918    0.54366438238769    0.94159349685173
C           2.46416292828621    1.15787200360853   -1.93416420270105
C           2.92694323032686   -0.26772594609972   -1.65411671203621
H           3.29566831892636    1.75357496949027   -2.30366996632056
H           2.08078537734611    1.62812836418286   -1.03282083339475
H           1.67970507903570    1.16093552683220   -2.68896781098351
H           3.72146692322718   -0.25935189184566   -0.90465422425102
H           3.33506612594141   -0.70058674923585   -2.56990868308454
C           1.79943251378910   -1.17823338115258   -1.15425944565096
O           1.46665608123488   -0.93610539329407    0.19926270254142
C           2.20713694232228   -2.64707415949635   -1.26376411528149
H           0.90490868420881   -1.00567534211791   -1.77975458712913
H           3.12440983150667   -2.81432220518109   -0.70480809643629
H           2.36482209482156   -2.92154924360564   -2.30301433894372
H           1.43261445534916   -3.28466991536136   -0.84487171257034
H           1.47088589419992    0.02943152851630    0.38109460555961
C           3.57396060215557    0.76098106773947    2.55205035369513
C           2.96518669326722    2.15169081599414    2.41665342287567
H           4.65836153877621    0.82694727020979    2.60749743581850
H           3.30558999992948    0.13939868262707    1.70308154266617
H           3.21140946203285    0.27575370307831    3.45575420683368
H           3.38146461374774    2.65419966089608    1.54127559781625
H           3.21182432226463    2.74440733226708    3.29916324434339
C           1.44251497733625    2.11298294122242    2.25867018254770
O           1.14756675132966    1.68998233599993    0.93889206158148
C           0.81265731446976    3.47964864220009    2.52308082100039
H           1.02278888767184    1.38313111631151    2.96922436171034
H           1.24427084884546    4.22328204288623    1.85633679816741
H           0.98329830556344    3.78518933052102    3.55165836975544
H          -0.25955921298970    3.42982759162316    2.34388179315836
H           0.16905653851585    1.71435274496819    0.83171029129696
