75
-88.700648248597
C          -0.98891753115517    0.51326238455732    5.24473216855063
C          -1.79126673607479   -0.09613281842340    4.10148685109254
H          -0.12816409994237    1.04849249416263    4.85061891055912
H          -0.62938814399151   -0.26412304333010    5.91586232904924
H          -1.60044441942592    1.20790035560560    5.81559897284940
C          -0.92193037743442   -0.98925138182341    3.21015930386115
H          -2.20605057114058    0.70061696206609    3.47926273779597
H          -2.61878509487829   -0.68585680352941    4.49926265973694
O           0.12113505051101   -0.23883868524323    2.62160944343714
C          -1.76588021545841   -1.67533097891039    2.13602802600311
H          -0.42000669072529   -1.74573343371792    3.82708146100160
H          -2.26154407975638   -0.92247204242488    1.52812710926602
H          -2.51764284566169   -2.31316290564990    2.59272738815807
H          -1.13645281544513   -2.28205942799248    1.48944417572068
H          -0.29671852454320    0.50010630422502    2.12196812876731
C           2.24112307624583   -4.00024369760912   -0.74846864672983
C           3.14785779768149   -3.06073908570554    0.03847538478008
H           1.38617279245887   -3.46056651082356   -1.14705339075116
H           1.87302726331736   -4.79802032959876   -0.10660070782491
H           2.78631094358381   -4.44838936632550   -1.57612854220599
C           2.40757608230497   -2.36648331808173    1.18460855440041
H           3.54956515655026   -2.29356244660798   -0.62653508371815
H           3.98612693645916   -3.62175392023948    0.45507107175926
O           1.45416243640798   -1.48371079543748    0.62768900112736
C           3.36866952164025   -1.60387334949053    2.09644098968760
H           1.88307789943745   -3.13155744470090    1.78161276285125
H           3.93449939753535   -0.87683106341848    1.51781938356124
H           4.06081449746549   -2.28869644449585    2.57855733358605
H           2.80452770197013   -1.07313288665223    2.86048924578304
H           0.97557896053524   -1.04260106300074    1.36813570905931
C          -2.79145350611807   -1.33201189844950   -1.59746842740921
C          -3.23566789552116    0.10566925659769   -1.35453502159968
H          -1.73604170355551   -1.45842381880995   -1.37219957097202
H          -2.95561502460863   -1.60533621067824   -2.63826737671423
H          -3.36193277320130   -2.01443672299119   -0.97169476668710
C          -2.39553018028758    1.13018749966848   -2.13004892265974
H          -3.16429102832437    0.34485682074911   -0.29115357125151
H          -4.27987142542218    0.21705171677812   -1.65315826214156
O          -1.11923134729392    1.31331663044462   -1.54496531525973
C          -3.09017479321413    2.49000674209517   -2.15301128729076
H          -2.26741750665246    0.77839961523205   -3.16546253069523
H          -3.32379891879831    2.80453019546411   -1.13899108201723
H          -4.01110323395371    2.43324305861065   -2.72626162493765
H          -2.43668253009384    3.23034356346878   -2.60837685046662
H          -0.59123601845436    0.48957125807123   -1.65785643878263
C           1.88343775663933    2.26340247697439    1.12459032221563
C           0.79095114619703    3.23081231386493    0.68521848267139
H           1.59691005056540    1.23832378854965    0.91027281665326
H           2.06454711589654    2.35179961435856    2.19363881822875
H           2.81086983311866    2.48041117577623    0.59930451862679
C          -0.52865011683492    3.01611898571273    1.43363036683653
H           0.59863714185035    3.10684595722015   -0.38343531858792
H           1.11970613624387    4.25793921977834    0.85455482609510
O          -1.07905526803558    1.74265217057431    1.16611959375771
C          -1.52803778044584    4.12058781847755    1.08425682336434
H          -0.34428000798235    3.02759835867893    2.51573803267673
H          -1.66740659477520    4.16630670310016    0.00666057265285
H          -1.16593712512324    5.08378444838752    1.43312228788297
H          -2.48738254596701    3.91617153781165    1.55454618211130
H          -1.12433964754086    1.62826944559869    0.18763178833485
C           0.11711754900928   -1.24541020636010   -4.72257464547783
C           0.94596939518765   -0.14951976037298   -4.06389996298430
H          -0.66783453672250   -1.57351025969950   -4.04656816103529
H           0.74206769234244   -2.10277260314378   -4.96359550680125
H          -0.33847644687431   -0.88062315247803   -5.64027493757903
C           1.53758294665146   -0.60557107378873   -2.72805130972107
H           0.32112729811198    0.72705314470206   -3.88363377752428
H           1.76307496460545    0.14646977316209   -4.72401420199747
O           0.46621593205655   -0.89681156596112   -1.84681396056371
C           2.45022844859018    0.46370532399175   -2.13154391643124
H           2.11912116391158   -1.52688913787292   -2.89358285649124
H           1.89787061438945    1.39135028586013   -2.00205622227122
H           3.30013318415884    0.64532571492739   -2.78399211190397
H           2.81453316919231    0.13957684165807   -1.15939197434495
H           0.84391628484528   -1.13365498899448   -0.97487475336254
