75
-88.700450956778
C           3.39056225577232    6.85580849007528    4.02736502169339
C           3.05369285877972    8.23989801381880    4.56887096242703
H           4.40676644349243    6.57943921753641    4.29469159081399
H           3.30549488168558    6.84142766437985    2.94261345644600
H           2.70992370404195    6.11230692986230    4.43566163092973
C           4.03045969833121    9.31328827553118    4.07372728877327
H           3.08466069713208    8.22652909835622    5.66051716189075
H           2.04411821235755    8.51856564588834    4.26154467112078
O           5.33490630555067    9.09003018613380    4.56508198406405
C           3.54854076061362   10.70932531668040    4.46814834346192
H           4.12134346043151    9.24951767111022    2.98210723496914
H           3.45110950338504   10.77034619330577    5.55056465767523
H           2.58546845599679   10.92482643561862    4.01394367469725
H           4.26665649336551   11.45762753536835    4.14014164000392
H           5.31105318307892    9.19484477028722    5.54442103870169
C           5.47766282390718    9.87321180351984   10.16756766825060
C           6.65734303889510   10.08278023047430    9.22581698974103
H           4.85389933784176    9.05694716222522    9.81079883987936
H           4.86681006740990   10.77197073334512   10.21987483604001
H           5.82547455159773    9.63253771809158   11.16949665280100
C           6.20541011157465   10.32758704790715    7.78269901801429
H           7.29408181145584    9.19540985037062    9.23790583192740
H           7.25309670675194   10.93413308361328    9.55939429172615
O           5.46694179188912    9.22222989635389    7.29655075504430
C           7.39884642493294   10.62867977775623    6.87610015519095
H           5.50314865521865   11.17056029893213    7.75888661107613
H           8.09407778948902    9.79236198307159    6.87653574886792
H           7.91771281822544   11.51854125852974    7.22233857867317
H           7.06336198757953   10.79585376525554    5.85593662413565
H           6.01654655207204    8.41785737187789    7.42301395299036
C           3.95029896196143    6.21359070078704    7.89317013343352
C           5.08197348908796    5.31748553362255    7.40410469532412
H           4.15384104943720    7.25548350054238    7.66364814760896
H           3.82675580356696    6.11527589414726    8.97030516275783
H           3.01534405999604    5.93163615362071    7.41495907728682
C           6.44048663215476    5.68882443247366    8.00723769501702
H           5.16397846415010    5.38291746902072    6.31711213305293
H           4.85939836268309    4.28120235012035    7.66478909227989
O           6.94649033559714    6.89157164465482    7.45284592418961
C           7.44377648558616    4.55068331115875    7.82008078955567
H           6.31889502709652    5.89690775580184    9.07854378233159
H           7.50649112797495    4.28512685460627    6.76799608103128
H           7.13336739933347    3.67738361907185    8.38705433367912
H           8.43075442085395    4.85398571466514    8.16158947718068
H           7.00549954114878    6.77954727686554    6.46995637957972
C           8.29985747330478    9.16597595601488    3.21787810774290
C           8.91968734550426    8.00300607041692    3.98426143801483
H           7.31116543397546    9.40734529078956    3.59831568569188
H           8.21034780560839    8.91976142351412    2.16086466619994
H           8.92656477730821   10.04980389105877    3.31059400503434
C           8.07377486850653    6.72711106041309    3.92920838925555
H           9.06911656650128    8.27072918030502    5.03132268470716
H           9.89851404829185    7.77542713995705    3.55795344985090
O           6.90892513362646    6.81378317637575    4.73656286412004
C           8.88292898359878    5.53312067306677    4.42680206310172
H           7.75904882377003    6.54386641349231    2.88838059888718
H           9.27757189839446    5.75111025521760    5.41593619584620
H           9.71030757068795    5.33363654544728    3.75212450043478
H           8.25119533527958    4.64917502617292    4.47538689359269
H           6.42690524208232    7.63837645382341    4.52153909123652
C           9.31157600446095    7.12372654180799   10.31283051972868
C          10.54480245653355    7.26925907379592    9.42751941653238
H           9.45519470208011    6.32302449446401   11.03491375786516
H           8.42879752461820    6.89168660009946    9.72217054697020
H           9.12642722543061    8.04722052649327   10.85853340187104
H          10.76860135151871    6.31869718059097    8.93723190697337
H          11.40192510034648    7.53587218397140   10.04812213884365
C          10.37134167019814    8.34074083029754    8.34151435896485
O           9.56964657373839    7.88730983525713    7.27349822645439
C          11.71676347049871    8.74101833571969    7.74197992636252
H           9.90619697237494    9.23310544947783    8.79742061741641
H          12.21380541338287    7.86307535926120    7.33747772894735
H          12.34992207306740    9.19825358879310    8.49692961386188
H          11.55659456263877    9.44844212927150    6.93285444594979
H           8.73353329730178    7.51706073021496    7.60660123372111
