75
-88.691768848682
C           9.41290875604981    6.99635963564058    3.80482369283476
C           9.32673775252360    5.90245291330328    4.86535808346378
H          10.41933031324408    7.40733992457436    3.77873229232459
H           8.72443201978355    7.81131877603435    4.01782938466373
H           9.18317253165717    6.59517406652735    2.81869252600002
H           9.53095395568483    6.32738887030926    5.84926922274319
H          10.08386355568890    5.14322205705771    4.66070948055310
C           7.96280648728335    5.20679187432070    4.89741341238752
O           6.92517505769353    6.08312348183652    5.31481920961416
C           7.97334519407339    4.02101810306555    5.85673997978068
H           7.72003123108303    4.84866940540031    3.88230445316730
H           8.28449952272452    4.34239549050492    6.84778300185431
H           8.65688235150721    3.25740912260600    5.49554733839226
H           6.97620125473026    3.59312584625277    5.92373917352289
H           7.00634652633353    6.92101269676441    4.82865299680778
C           4.07340426520493    8.19917717944511    5.07395652924342
C           4.66126051384159    9.49931751980366    5.61055014691875
H           3.13901215809340    7.97114370054655    5.58170073032095
H           4.76049526421515    7.37170638867298    5.23013040646632
H           3.87337065485719    8.28500751476587    4.00808567406336
H           4.85177645294397    9.39860391644692    6.68243404768401
H           3.94586661302305   10.31199760594999    5.47180961186169
C           5.97387681875820    9.88538000662220    4.91918680696646
O           6.96875420665120    8.90088384575498    5.10547457489403
C           6.46716535341237   11.24623009430661    5.41554384426951
H           5.81936051350297    9.92811116850318    3.83446006634615
H           6.59079907732383   11.22785445922674    6.49693007004230
H           5.75655271507188   12.02633610200484    5.15771528519383
H           7.42693888558720   11.47945661947955    4.96101051311757
H           7.05530231912542    8.74110237447753    6.06135982084454
C           5.02483887017820    5.08517008663175    9.72977835935410
C           6.04174162239417    5.59368222648939    8.71614304951038
H           4.93310794459926    4.00475102390687    9.65062447138297
H           4.04606119602549    5.52625447042928    9.54853224539007
H           5.32862701267474    5.32359628799030   10.74562459026070
H           5.75995436585133    5.23762295239697    7.72178947475424
H           7.03200701391695    5.19827063599646    8.95010018678642
C           6.12533512147690    7.11898760058808    8.66022285022347
O           7.00565752263603    7.53008535821157    7.61991241849816
C           6.63633369880383    7.72402193542772    9.96343195576537
H           5.12368614702804    7.52723011480497    8.44009805430899
H           7.57158192489481    7.24665747670232   10.24554293932461
H           5.91001855077490    7.58606777815112   10.75798948088513
H           6.80464757397584    8.79113246483491    9.83217464506807
H           6.97440858724222    6.85613344324073    6.90143173960969
C          10.55807027834558   11.08968820443623    7.25526267988167
C           9.75029890885387    9.79886604910938    7.24891330381711
H          10.09760853118855   11.82065840457067    6.59457827111358
H          11.57287055272685   10.90668526176663    6.90887274559974
H          10.60678127118197   11.51888635137362    8.25283690309796
H           9.64983143628757    9.44090201892117    6.22178579503356
H           8.74609070210462    9.99087209932106    7.63583318755065
C          10.38191142553164    8.67546634132271    8.07767652388264
O           9.73503763180699    7.44933567274476    7.80124259998864
C          10.35528961167640    8.97379098539133    9.57735442678659
H          11.42163057432719    8.52639139336729    7.75914378877091
H           9.34161862596427    9.20243400460005    9.89880139689982
H          10.99957106771275    9.81572428257978    9.81166118886643
H          10.70661433942591    8.10527959904566   10.13002912672315
H           8.76323899627531    7.58180335118364    7.86648196874803
C           9.17017252329605    2.70592290617611   10.80916033227702
C          10.00380803116470    2.76403079722762    9.53526696256598
H           8.82732121330150    1.69082314648794   10.99535210005103
H           8.30505460766071    3.35583603920253   10.71139186539760
H           9.75633360437410    3.03646292286541   11.66427653378736
H           9.41259405090292    2.39087586390942    8.69703992271770
H          10.89084230706138    2.13663545304186    9.63964862325880
C          10.44460862251580    4.19307250040329    9.20696554970721
O           9.28571172155817    4.95779805581195    8.95961977707568
C          11.38814665078878    4.22059169329126    8.00462075266973
H          10.97392313598513    4.61148726254981   10.08247188401971
H          10.90885581735357    3.75576239952492    7.14644788941005
H          12.30700362237700    3.68582763101365    8.23035424205264
H          11.63306740083413    5.24924161748259    7.74726711362961
H           9.56040254761298    5.81957148297993    8.59632402096218
