90
-106.438715878501
C           6.87249138553558    9.42598686975950   12.12412035701994
C           7.66205436837353    8.13527751909312   11.94285128496939
H           5.96630194563875    9.39548505032303   11.52345710386090
H           7.46331169747463   10.28332653790572   11.80759089781575
H           6.59466052321355    9.56334536581199   13.16647867859927
C           7.98378765821613    7.86400410965817   10.46876145736945
H           7.08071764000753    7.29231644998019   12.32245743708937
H           8.59548848792680    8.18760675533216   12.50567219308940
O           6.79195049078053    7.75314497249087    9.71293805941623
C           8.83549693784330    6.60541771508747   10.32138566573005
H           8.51349908227532    8.72887152170400   10.04900094353926
H           8.30333357892515    5.76189129403892   10.75488940852958
H           9.78293127550706    6.72816267807626   10.83979021748845
H           9.02828992447161    6.39142470139815    9.27278862670821
H           6.30546511429575    6.97202027301719   10.06259492314217
C           7.83379224720132    8.80116759601729    4.36346798304623
C           6.46025097485660    8.86406329693741    5.01957425280861
H           8.37759342713523    7.92625023014268    4.70818364823914
H           8.41174351179625    9.69009311924735    4.60745578159112
H           7.73428661625553    8.74183359131176    3.28191297222051
C           6.53877596497585    8.95718543136593    6.54533017291214
H           5.88878076526554    7.97167950793338    4.75692765037888
H           5.91616572547902    9.73520471908162    4.65079715742542
O           7.11477235101525    7.76076230630002    7.04554974820205
C           5.16053600587972    9.18658383428888    7.15895646108260
H           7.19367097667254    9.80269951227306    6.81452136973225
H           4.48349122750859    8.38576532350675    6.87108975550474
H           4.74955330361915   10.13475146455147    6.82347099047059
H           5.24042647706078    9.19863968499697    8.24331944222629
H           7.01228393723012    7.76134116886778    8.03074287325923
C           8.25109961330737    3.47076033363388    8.14947516274129
C           7.59374889887698    2.76726383896513    9.32930113965269
H           7.73220902960928    4.39205802022934    7.90327132577829
H           8.25218072726202    2.82598512367978    7.27278243434098
H           9.28054491152475    3.72585374609090    8.38275696149993
C           6.12692499616119    2.40511964140490    9.06385727689835
H           7.63408421412306    3.40909274012156   10.21175720283229
H           8.13729933241732    1.84792408716456    9.55646731608908
O           5.29434389951283    3.54841583243733    9.03130090264496
C           5.58640294967436    1.49168177821624   10.16209526020092
H           6.05635072743565    1.87938506154422    8.09759395268341
H           5.71638984762612    1.96516791711068   11.13228089021390
H           6.11278795242795    0.54164210813145   10.15851178440102
H           4.52630886488259    1.31041197883321   10.00231372214750
H           5.51781924079782    4.11664525181141    8.26709051170893
C           3.37531730192305    6.76717578929275    9.38427627783572
C           3.21133824482375    5.71777803739117   10.47717679982740
H           4.24127205335900    6.53746195875717    8.76966112397976
H           3.50480842679883    7.75647423167665    9.81830368194682
H           2.49412417021698    6.78580190565363    8.74663005154036
C           4.36418682548445    5.73811656349517   11.48579694636128
H           3.17221841220263    4.72688414390987   10.01955247501582
H           2.27808443268954    5.88438071765677   11.01869250396653
O           5.61318561358823    5.55001753444001   10.85487090006030
C           4.14803694697351    4.67819083783353   12.56817794081315
H           4.42309265308214    6.72838634797264   11.95679774662544
H           4.06123468148344    3.69593661619044   12.10856834762185
H           3.24078191422660    4.88589216096547   13.12874053236972
H           4.99143036319614    4.66918644366041   13.25511524494663
H           5.52871103524541    4.76843796921592   10.26138741308604
C           7.33541603562635    4.85581140121520    4.56406325094366
C           6.05694225512233    4.12933301005377    4.96589087895110
H           7.90119115503905    5.16505492810787    5.43973541642208
H           7.10147318853723    5.73423692540710    3.96574129051256
H           7.96621644125218    4.19854887358592    3.96956798274205
C           5.08247549724797    5.02026112313894    5.74914910739490
H           6.30746609702964    3.26522446792094    5.58431925118556
H           5.54326906389876    3.76779355537310    4.07257358207225
O           5.62439421654240    5.41896532600525    6.99382610482531
C           3.77373847644695    4.28398461873375    6.02885216824573
H           4.85907222852741    5.91465327686353    5.14672104270756
H           3.96782885522698    3.37626770910988    6.59385099801773
H           3.28050676872153    4.02300889218584    5.09672774383567
H           3.11400537326037    4.91705463485338    6.61635116923503
H           6.24217244568776    6.16619765325432    6.86710109690274
C          10.44909944322542    9.13708659946148    7.34575273624847
C          11.26110992502579    7.84969682274513    7.42527428804530
H          10.86881922049564    9.88960664991636    8.00977384746344
H           9.41762693570154    8.96207943704031    7.64015438179199
H          10.45864386821707    9.53094665485366    6.33103163084847
H          11.25062366459326    7.47167959669859    8.44922509993366
H          12.29684108998220    8.05697365696182    7.14983901184714
C          10.72599917284053    6.74844717384379    6.49754089948602
O           9.47216476907735    6.26093146735820    6.91760657824260
C          11.67784074655583    5.55529646352336    6.46891189528682
H          10.64100232041775    7.15917138193410    5.47596546817976
H          11.80581010110709    5.16580893340213    7.47550629330878
H          12.64530634528215    5.84806254028741    6.07123615209415
H          11.25699727584467    4.76988885849533    5.84712028515037
H           8.80601571872245    6.96872767459028    6.88052952790118
