90
-106.428872974148
C           6.12869786552562    4.03823219435970    7.59346052477949
C           6.63758713891631    3.94045554131893    9.02666967806561
H           5.87745030900091    3.04973968422686    7.21627633847674
H           6.89061597172098    4.46617693214327    6.94822489863822
H           5.23544551765898    4.65775209465206    7.54510438920380
H           7.48661138325308    3.25522590504458    9.06318094027718
H           5.85211416689226    3.53868045611326    9.66945081852802
C           7.08491362854202    5.29662494896989    9.59279434159673
O           8.25018771548273    5.76044046020413    8.92868986969115
C           7.39635806019731    5.19031237765092   11.08591044133898
H           6.27108907750796    6.02243417974777    9.45770878825762
H           8.17876473875897    4.45398364140170   11.25169023443400
H           6.50888151020501    4.89599028700750   11.63912300062103
H           7.74492188492436    6.15052611256328   11.45863709470415
H           8.01470817470876    6.44184539662573    8.27027759395302
C          10.92588281814945    3.36615623822374    9.55010659207445
C          11.29863037078337    3.07150480062920    8.10249046435189
H          11.12203348760065    2.49891753161050   10.17697320471807
H           9.87226283648705    3.61930231184098    9.63216657941880
H          11.50667835733769    4.20469181822258    9.92629337141339
H          10.76324466167567    2.18518097115260    7.75363053638341
H          12.36878339923287    2.86731479316761    8.03757089258479
C          10.95905865218913    4.23467568933261    7.16038064758498
O           9.55643150218054    4.33448601989090    6.97148166405711
C          11.59939068459680    4.02782004272149    5.78998892678423
H          11.32583697475062    5.17371858066565    7.59597122144042
H          11.23847223395249    3.10191264811056    5.34857991641737
H          12.68066123675875    3.97705304375440    5.88297671936703
H          11.34451903213323    4.85372707447476    5.13091233877096
H           9.16028577620764    4.74283356498488    7.76966926033464
C           5.06859735467565    7.03981742993451    5.32033921605415
C           5.22511109544404    7.74440552692867    6.66258553119457
H           4.09459976423657    6.56007981803564    5.25564307712087
H           5.83202273855142    6.27628467396640    5.19231594520956
H           5.15219684582722    7.75643371122640    4.50516607562110
H           5.11625599142422    7.02157740342139    7.47393955011743
H           4.44085003680305    8.49497009760293    6.77463298253965
C           6.58118577754342    8.44427525655238    6.80899503865750
O           7.65140930272538    7.51250026326707    6.87197074325787
C           6.63426082827347    9.27922419312731    8.08435250752107
H           6.73248822411171    9.10092388295890    5.93863559198252
H           6.38246372236039    8.66311922381465    8.94479329161562
H           5.92876878752083   10.10275414067620    8.02315822546889
H           7.63561912121394    9.67822154568957    8.23012185239567
H           7.69863190566304    6.98830586782956    6.04961664537928
C           8.19421922317514    2.74778725777516    4.36524741966694
C           7.53844207418687    3.93323744092604    3.66609102787340
H           7.50837768284023    1.90430807841154    4.39716641499081
H           8.47495391406747    3.00188238492852    5.38415536678010
H           9.08829502035774    2.44062181662766    3.82570344753767
H           6.59749394153050    4.18016339402081    4.16320763118024
H           7.31055114487569    3.66564181669167    2.63258367478946
C           8.42824834954490    5.18457420802038    3.65919355248025
O           8.47901131860411    5.79984565166139    4.93247804230707
C           7.90861562106319    6.22557534751696    2.66980061882746
H           9.44742790134401    4.89209520721505    3.35907898495697
H           6.87457261396374    6.47409175273984    2.89449099299262
H           7.96843097345152    5.84299502957100    1.65513183454663
H           8.50715592447785    7.13066790953102    2.74053321989560
H           8.92287220134472    5.20124806199785    5.57473230744999
C           9.59197387523726    9.89001696952710    5.21264689450763
C          11.04059081420886    9.55028207553275    5.54101032954860
H           9.52514495200528   10.88989804061692    4.79025910763169
H           8.98810673041024    9.86495774217414    6.11475545027373
H           9.18570614210047    9.18258998356949    4.49102626229278
H          11.38123308488510   10.18627827485271    6.36002372864619
H          11.67230091498273    9.74290222723653    4.67158636944802
C          11.22713719354099    8.08177444896159    5.94674994862559
O          10.50099189615713    7.75462393607301    7.11568288990284
C          12.69912861856022    7.79070020071635    6.22874032399957
H          10.88229876697731    7.43969879153446    5.12089482340033
H          13.04788999451071    8.42524428351173    7.03978832491319
H          13.29901566315925    7.98361873376746    5.34389739610690
H          12.82466455992342    6.75231880528330    6.52276598629033
H           9.54856093897903    7.75471922655063    6.92033377637257
C          11.20878584685828    7.18026737210681   10.27367707161984
C          10.80854365607618    8.48154345352482   10.95947900036626
H          12.06636394036137    6.73747931897001   10.77676564185467
H          11.46911430971350    7.35186262749939    9.23296921367068
H          10.38154612916791    6.47475474056199   10.29873117060878
H          11.62792777949527    9.20210222620720   10.90657151006289
H          10.59906378050184    8.28606305086306   12.01356913639694
C           9.56221912454928    9.11474184913777   10.32568071245271
O           9.83828858529690    9.68623227358792    9.06596448559054
C           9.00047810915959   10.22501312127130   11.21111416324700
H           8.79779442451920    8.32764977009334   10.20934262152013
H           9.75758280541210   10.98994837345186   11.36327886554829
H           8.69473190789908    9.82672499662986   12.17485964383201
H           8.14239359314465   10.68315577288344   10.72620019395508
H          10.21922664618033    8.99857627499154    8.48978307566938
