90
-106.423422660271
C           8.19104436288834    7.62679406695882    7.55956003151612
C           8.89418185625642    7.09198065788779    6.31530545992986
H           8.01908997288976    8.69543372805487    7.46003736188774
H           8.79260339610016    7.47301790444765    8.45439258446054
H           7.22822892186389    7.13788693392726    7.69865035581403
H           9.88180460755763    7.54990652568928    6.23121605805211
H           8.31691768824729    7.36078110913043    5.42970961889275
C           9.05863394265350    5.56715982572921    6.33296271395455
O           9.93048844573060    5.15176155647335    7.37669426857805
C           9.65141234623046    5.05382676607475    5.02620073293008
H           8.07293798374256    5.10096193247316    6.49029475736864
H          10.60981452770373    5.53059246700314    4.84074101081005
H           8.97943351806624    5.26825009157267    4.20055589490226
H           9.80466495307946    3.97989705979782    5.09050388808482
H           9.57421143675371    5.46823692855225    8.21443643675024
C          12.25595531674361    7.71789815714516    9.64411953661416
C          12.73111867119654    6.31592058875946    9.28111624971611
H          11.81065312522757    7.73042786182675   10.63655345373611
H          11.51703157627435    8.06498691741656    8.92461163176590
H          13.09328397254130    8.41187207812221    9.63236764934449
H          11.90530338599392    5.60483746290489    9.37732039486456
H          13.52198396290852    6.00604418981403    9.96451505642783
C          13.27010569935298    6.25180027645852    7.84878392621410
O          12.26953360698798    6.62917503167765    6.91466887319915
C          13.79831406876959    4.85629056992724    7.52284314589419
H          14.06970937563100    6.98992870939091    7.72751846052538
H          12.99599142085110    4.12438265535468    7.60764068976593
H          14.59513452087521    4.58435677822608    8.20855083021817
H          14.19073160784282    4.83178402853985    6.50916745175585
H          11.52179944443176    6.00739736888861    7.02190402691617
C          11.06948871274354    7.68512523984783    2.20410544538824
C          12.00711765804114    7.95593074769098    3.37292593301866
H          10.23072309597071    8.37691255551912    2.22858628653697
H          10.67989619128402    6.67050305431608    2.25395728971250
H          11.58365515574832    7.80919901435192    1.25478996916153
H          11.44020283587552    7.90147005678761    4.30691810245876
H          12.41547772645916    8.96576468715570    3.28970350840289
C          13.16544771724471    6.95194540546451    3.45875042326703
O          13.82476863532422    7.04633961007568    4.70620707509713
C          14.21612567651671    7.17913230275674    2.37719054547952
H          12.75615222272837    5.93330138987612    3.34808846071997
H          14.61042706778264    8.19012374025818    2.44609289793530
H          13.78870890972652    7.02776883253381    1.39107408701168
H          15.03706697892153    6.48129689639131    2.51844301366914
H          13.18755081562951    6.87540198842847    5.43315811968851
C          15.17260298626134   12.14712667501379    4.63249528053489
C          15.31563496860542   10.63985538132951    4.79474429670075
H          15.57531356715320   12.46003633514604    3.67185112293223
H          15.71779771721170   12.66639418906109    5.41735474359800
H          14.12961843164532   12.45037042707289    4.67755196569801
H          16.36219803936135   10.36071404707241    4.65077723176783
H          14.72452074506046   10.12744505192585    4.03078403902808
C          14.88193767102359   10.13071243045954    6.17499652673031
O          15.24826852927609    8.77326613915172    6.32962129305802
C          13.38498257502552   10.30525642385408    6.42162559849464
H          15.44518033687110   10.66496005633087    6.94987973340380
H          12.81669052512030    9.84141899228911    5.61840926197064
H          13.12287227099672   11.35704724013714    6.48312913429926
H          13.11366008614560    9.82197224507145    7.35678480540985
H          14.76288521856858    8.24444916873836    5.66489037277500
C          20.49200562244419    7.85003894492456    4.80462230656860
C          19.53638309834098    6.69512213632096    5.07595343340350
H          21.52391619835667    7.51176572180566    4.85890552754309
H          20.34020877628373    8.63071743138027    5.54461169508572
H          20.31585235330638    8.26976343596018    3.81569993946538
H          19.75621251515828    6.26423341805718    6.05384800881216
H          19.66252134726053    5.92010017301542    4.31751284266756
C          18.07545733444964    7.15337209391097    5.07627052077595
O          17.91541541971969    8.07318956508013    6.13866537562695
C          17.12600099825431    5.96441058790682    5.22369026393560
H          17.86053788306417    7.66647104292060    4.12231079026053
H          17.31628177632915    5.46007196710003    6.16799171558414
H          17.28263985756593    5.25780431573908    4.41225954438098
H          16.09074070938638    6.29826426267448    5.20207587281237
H          16.97216541843050    8.32498059480845    6.19908927953278
C          16.33042139985046    5.33255603742592   11.27487018844777
C          17.56056105305839    5.85108089629142   10.54308165011221
H          16.62829332425369    4.78521322540003   12.16635517490797
H          15.76034496573593    4.65950472549799   10.63671497692425
H          15.68175085794774    6.14980290046676   11.58187099743688
H          18.21813130789870    5.01528410613932   10.29679726855802
H          18.12102688762703    6.53085227335907   11.18697637569026
C          17.23956160195757    6.57620768282048    9.23038905639208
O          18.45029059461756    6.67650069235064    8.51874547913745
C          16.61146675097565    7.94945781237320    9.46668686066297
H          16.52400791694293    5.95987735027634    8.65436934825510
H          17.32619018576075    8.59685643976044    9.96996317819628
H          15.71942329357039    7.86044999246892   10.08071152718207
H          16.33526819910818    8.40185514110111    8.51751059746282
H          18.30606367957300    7.22689476697040    7.72225237796157
