105
-124.190257287139
C           1.59591730025067   -0.15102741105968    5.80768170453804
C           1.03978399382342   -0.98251624016650    4.65849233442007
H           1.28148183578997    0.88440347978726    5.70442156163793
H           2.68369296455189   -0.17930834585523    5.80736489970524
H           1.23935907568424   -0.52874669633843    6.76304705725959
C           1.43117357348520   -0.40680422887392    3.29346780008929
H          -0.05092058094211   -1.00519095011149    4.71414587135592
H           1.40724382182731   -2.00778014269647    4.72997106347726
O           0.90733208600828    0.89627874790051    3.12765288641407
C           0.96180572436332   -1.32400185385093    2.16396945916740
H           2.52054322516867   -0.28734295546733    3.24779576370624
H          -0.12043058712521   -1.42487403509649    2.20091180939795
H           1.41280061067158   -2.30722876920365    2.26633676434506
H           1.23784606069507   -0.91320008163332    1.19688632247299
H          -0.06590877765726    0.82700064591977    3.26050738408403
C          -2.18816402491617    1.14000167288845    6.30330750580898
C          -1.93165174417774    2.14392969035570    5.18651585387224
H          -1.77062685201488    0.17300337186572    6.03750177553594
H          -3.25663584087326    1.02007873171378    6.47139747275216
H          -1.72731337998291    1.47490023752221    7.22935121541065
C          -2.49992467306621    1.67269139484925    3.84561724571191
H          -0.85704867611514    2.29364957650232    5.06773745082662
H          -2.38478171196487    3.10387526325685    5.43966008902838
O          -1.79227235962739    0.51149410512041    3.45252882570300
C          -2.38617169678601    2.76571897964174    2.78384464608108
H          -3.56310251338370    1.41157998094626    3.97971875731657
H          -1.34936673208073    3.07917392689535    2.68531245890428
H          -2.98951246786649    3.62594157077277    3.06103775951764
H          -2.72870449246283    2.39095430982615    1.82182162401355
H          -2.11254833651652    0.23711306075787    2.56466829873794
C           4.49486618568634    1.22987876331026   -2.78507319870774
C           4.74115474400772    1.05661766826972   -1.29101309579525
H           3.42690799050051    1.25203170099042   -2.99112239119794
H           4.93382597285399    0.40538456403108   -3.34413600387232
H           4.93382130146574    2.15900355511572   -3.14052630298335
C           4.02604363172153   -0.17798482847776   -0.72751771252987
H           4.37471447873971    1.93387747836308   -0.75388649110460
H           5.81174988041253    0.96348646613763   -1.10217141994398
O           2.62617540590238   -0.05022245186763   -0.85792305083909
C           4.41665280986725   -0.41078714554298    0.73100693113670
H           4.29610014064905   -1.05952692439973   -1.32331966679358
H           4.13711739963166    0.45749741975674    1.32416607877110
H           5.48821774578634   -0.56939838689706    0.81627341056294
H           3.89995909991507   -1.28412412267660    1.12155419260526
H           2.34999757560556    0.70590093718195   -0.28560380275329
C          -2.78624685862288   -4.01018241662357   -2.47961274955503
C          -1.70239784510716   -4.51604502533550   -1.53520083261675
H          -2.68557962932006   -2.93697691301121   -2.62269033893442
H          -3.77434235360838   -4.21181700862389   -2.06995963520278
H          -2.70920686404382   -4.49898028064131   -3.44805068070616
C          -1.72700429538064   -3.78411194415148   -0.18823835818337
H          -0.71928037158164   -4.36548946214035   -1.98569392366995
H          -1.83421708471655   -5.58468947254594   -1.35753097484896
O          -1.54320594448216   -2.39434308196253   -0.35684423771360
C          -0.67674306016545   -4.36109172857480    0.75984197540768
H          -2.72430959926769   -3.89304404419796    0.25837786982201
H           0.31444795710800   -4.20267910371587    0.34037290663384
H          -0.83765976620796   -5.42620549507606    0.90204747441874
H          -0.72906666102270   -3.86582086252437    1.72588937909906
H          -0.67441686078859   -2.26031071205824   -0.79276283782269
C          -4.38226626741172    0.45065721911392   -1.34860527651500
C          -4.58415556704190   -0.74498616554832   -0.42557711736235
H          -3.33867827318654    0.75486464613512   -1.33770527937374
H          -4.99031490178119    1.29226105792884   -1.02252924969518
H          -4.65976820021283    0.19807161900634   -2.36883986814567
C          -4.07158678005453   -0.45736220944910    0.98807936333397
H          -4.03655995594214   -1.60430001510253   -0.81743471873425
H          -5.64280230485401   -1.00502550528697   -0.37631181862124
O          -2.67468781779096   -0.23191466057724    0.97845904679769
C          -4.43059626214868   -1.58753108007638    1.95389867654717
H          -4.51176077222373    0.48093217185333    1.35030356558269
H          -4.01020298302839   -2.52594766114724    1.59922499914612
H          -5.50919612618672   -1.69234489879920    2.03173464099954
H          -4.02577879436675   -1.38006309454245    2.94208023103818
H          -2.24850911866616   -1.00377349243728    0.55112173900054
C           2.49003907113031    4.53564636901276   -0.52531375230325
C           1.45804099908233    3.50642571870452   -0.96914985280004
H           3.25634886216086    4.05678454084407    0.07890145630418
H           2.02026787695721    5.31340511444751    0.07316683249600
H           2.96321726519022    5.00002447978488   -1.38736084359440
C           0.85781714088751    2.74823345953261    0.21826827115348
H           1.92785797081938    2.78237921661105   -1.63669782095543
H           0.65210154358488    3.99981644150008   -1.51480779160943
O           1.89055129199363    1.98180602040927    0.81281490207087
C          -0.29518452643008    1.85093949870107   -0.22917048718059
H           0.48773043705429    3.47932544349525    0.95370301882025
H           0.05229356068836    1.15668571882738   -0.98902703879802
H          -1.09983604668833    2.45222794865331   -0.64371567492219
H          -0.68530562994987    1.27801176546297    0.60738192760510
H           1.54785169666711    1.59336278038908    1.64840195342524
C          -1.03535687410280   -0.33174079234954   -3.29302462977263
C           0.44751464339266   -0.57507703798143   -3.54777086907062
H          -1.27809071443549   -0.51429819357778   -2.24929520217178
H          -1.63819817401788   -0.99667796312911   -3.90851561331196
H          -1.30125795750423    0.69420639303848   -3.53737420611965
C           0.89827095889769   -1.96427783325127   -3.08027473368880
H           1.04434795611779    0.16849088865228   -3.01412504407969
H           0.65830072773580   -0.47509312754460   -4.61388865498715
O           0.87849361264738   -2.06373307530401   -1.66948182253764
C           2.28824315361285   -2.29587481120545   -3.62259156963512
H           0.18164301511311   -2.71595457294796   -3.43356305587280
H           2.99213730785697   -1.52380739494585   -3.32150830276901
H           2.27050726858612   -2.35387143111239   -4.70750597989312
H           2.62442409155105   -3.25092757232987   -3.22488020594894
H           1.50348533034517   -1.39548976714817   -1.32104348923358
