120
-141.934973106865
C           2.01512572312965    1.46209678501009    3.00519747399905
C           0.85298361196100    1.38494233924557    3.98768071223640
H           1.82284624187129    0.83697105444666    2.13722054184123
H           2.93494934985437    1.12371586403665    3.47852692051293
H           2.15987668494049    2.48670582401466    2.67139110782473
C           0.64054089501323   -0.03401850185531    4.52730865350802
H          -0.06874968114142    1.70416909389345    3.49556414634237
H           1.03867048613194    2.05301187781756    4.83061143628008
O           0.26372751509907   -0.92514245897600    3.49775320560650
C          -0.39865541351643   -0.03658098411236    5.64802488340219
H           1.59310808309328   -0.42146821854564    4.91114969514775
H          -1.33546409201693    0.37270866748902    5.27661941349070
H          -0.05731758112832    0.56420078595277    6.48658958277083
H          -0.57222412396453   -1.05364133200729    5.99311555065801
H          -0.59919404634359   -0.61703401075258    3.14750731117535
C           0.57782595027475    3.16360852604753   -0.19569740796538
C           2.07237285130656    3.07599515870026   -0.47938990587955
H           0.09522074747857    2.21323363151288   -0.40628492925262
H           0.11611735394820    3.93120468314751   -0.81378686506718
H           0.40329623668468    3.41239920916419    0.84791985251649
C           2.36933077472659    2.68765440829075   -1.93080693404285
H           2.52614972724738    2.32297083686861    0.16803680013650
H           2.54497762013664    4.03769437784122   -0.27172477175905
O           1.86481000617391    1.40060697083601   -2.23019168594719
C           3.87054925230920    2.75652118455491   -2.21108975876239
H           1.84154854417247    3.37068923622268   -2.60833508697739
H           4.40366726317190    2.12353692228971   -1.50529554022286
H           4.22947625238564    3.77700231633958   -2.10951824101952
H           4.07840575331902    2.41021966633488   -3.22126511406223
H           2.26884630265192    0.77710957907325   -1.59154672379682
C          -1.48595151756080    3.86198732625448   -3.98760056443454
C          -0.55229433488518    2.90596315870732   -4.72030666156686
H          -1.46120443812655    3.66248408408287   -2.91874819748635
H          -2.50930854678401    3.73680478282205   -4.33512100213658
H          -1.18798929790408    4.89412052087076   -4.15716885440880
C          -0.87186761166633    1.43875540682605   -4.40582237416848
H           0.48148982039321    3.10319826990656   -4.42677588793460
H          -0.63192581845065    3.06086074138120   -5.79753843496784
O          -0.79163326012505    1.18741638100681   -3.01879911252487
C           0.05330055975855    0.50352342837565   -5.18366746239699
H          -1.91537753638953    1.23187015895315   -4.67501078877956
H           1.07992846070345    0.64759297802642   -4.85097837577021
H          -0.00630896376368    0.70951376734477   -6.24874619515245
H          -0.22779569919328   -0.53298229714641   -5.01402933476637
H           0.14237807178774    1.30459051050826   -2.74362250966257
C          -4.46998603125220    1.45920595127624   -2.39517035048014
C          -4.50535149382606    2.25596338467826   -1.09649886457310
H          -4.43889279401932    0.39120281100136   -2.19468561326956
H          -3.58644018137924    1.72373439078853   -2.97012104602699
H          -5.35291990340063    1.67162451111119   -2.99401068666047
C          -3.25439004302402    2.02616684035197   -0.23794433469490
H          -5.38342124016219    1.97267824508373   -0.51182795535906
H          -4.57694381401508    3.32164682061681   -1.32267110935326
O          -3.20593389371161    0.69737217650601    0.24886957344687
C          -3.23807433677590    2.96178097484673    0.96833177257505
H          -2.36398901276600    2.21756149485644   -0.85437325423266
H          -4.12146977405113    2.79266423418847    1.57929898469576
H          -3.22543102923240    3.99776969158338    0.64205429373984
H          -2.35490861725978    2.77249596465175    1.57344741100394
H          -2.93995996974262    0.10252804602809   -0.48660522708468
C           5.87182436006714   -0.08177256414708    0.66191429169155
C           5.23951360548773   -1.33412122926672    0.06640507478720
H           5.10207789781040    0.55181822876178    1.09686247417095
H           6.39317069772965    0.48669133920765   -0.10599040318370
H           6.58456799676893   -0.34554484518290    1.43941357659168
C           4.14976208578691   -0.98845439080530   -0.95362236326709
H           4.78493593880765   -1.92356916328411    0.86423072693578
H           6.00314267335845   -1.94349203384412   -0.41985110505907
O           3.11754914928084   -0.23491650982768   -0.34846686118530
C           3.58242561789837   -2.24660863635554   -1.60991943415260
H           4.57173967735136   -0.33481079392621   -1.72721788087415
H           3.13480972960021   -2.88621003690892   -0.85232833547393
H           4.36747162640262   -2.79840627023091   -2.11940160379631
H           2.81595876842897   -1.97637551292209   -2.33218109038847
H           2.73734252529711   -0.78363677401705    0.36329813400192
C           4.18600255181490   -2.47473924480531    3.80512720086310
C           2.87407991397847   -3.23644295752856    3.65832956186765
H           4.07404338046292   -1.46164563709548    3.42543671736379
H           4.97959381999360   -2.96656853494749    3.24558500935391
H           4.48390815739061   -2.42385361139290    4.84979795720334
C           2.35943039679437   -3.22456167251723    2.21386554237527
H           2.11060350795057   -2.77932523265005    4.29109813680818
H           3.00638155668147   -4.27132918357315    3.97818488916276
O           2.16691445809501   -1.90382462045144    1.75408243224573
C           1.06432829897517   -4.02960105788841    2.09899969939184
H           3.12226435482998   -3.65774210430310    1.55297784185839
H           0.30314133253116   -3.57553531564002    2.72997515231724
H           1.22448093453508   -5.05621941623878    2.41646265472579
H           0.70836625335071   -4.03224976658340    1.07094640426043
H           1.51301654881703   -1.48624794135549    2.35583615448992
C          -1.28549333732847   -3.12013610468811   -3.37517845188018
C          -0.39438803854210   -2.38056131811872   -2.38483173998887
H          -2.04888531474824   -2.44973552600112   -3.76352701907860
H          -1.78396609704180   -3.95547034154062   -2.88803912797104
H          -0.70009636530770   -3.50466095614811   -4.20763022142270
C          -1.20251642145432   -1.73922739295265   -1.25071791326169
H           0.15634876766149   -1.59101092210613   -2.90125645525706
H           0.33135630147564   -3.07067728169879   -1.95136872739016
O          -2.18321880367609   -0.85409905384587   -1.76013178042482
C          -0.27558492931550   -1.02287741552575   -0.27230935780709
H          -1.77128455903579   -2.51785390862089   -0.72761986780790
H           0.26185082947435   -0.23226442458890   -0.79008249903875
H           0.44602087572166   -1.71727912864539    0.14357441439735
H          -0.84553701307645   -0.58563241045732    0.54211834682641
H          -1.71731954811376   -0.15393232619430   -2.26436910660447
C          -4.63991200157088    0.77374862001923    4.23482216388426
C          -4.58557599987945   -0.34247618768793    3.19837812666785
H          -3.87593650270252    1.51796827756217    4.02144507636339
H          -4.46368352601461    0.37749391160742    5.23320094847288
H          -5.61202533254264    1.26107368815284    4.22439780935914
C          -3.19265689841305   -0.97474898357119    3.11813133376599
H          -4.83006060039127    0.05749782646488    2.21194391068188
H          -5.31454427694934   -1.11580515982149    3.44567483743526
O          -2.23201098453184   -0.01738253941723    2.71654810240145
C          -3.18816424317648   -2.17329090954210    2.16940545089170
H          -2.88015095061447   -1.29961121875556    4.11857597812001
H          -3.51054038628798   -1.85694422985015    1.18000316614484
H          -3.86098561189409   -2.94582829583924    2.53147902575680
H          -2.18491259726890   -2.58716779343278    2.09604458218180
H          -2.53022126940887    0.32812587313803    1.84637798920704
