135
-159.680128303400
C          -0.12747627636988   -1.78179533567982    1.79538183464547
C           0.97999304092247   -0.86015103305166    2.29124684753609
H          -1.02144964722850   -1.21227177922847    1.55641326134218
H          -0.37751447973916   -2.51920148434927    2.55655731085842
H           0.19759150949120   -2.30413956257511    0.89906535990718
C           0.61346244024607   -0.11255907819153    3.57751223790289
H           1.21577608162463   -0.12244786314499    1.52154953126656
H           1.87923575063532   -1.44584953448038    2.48904946847543
O          -0.52545275654701    0.70656501983048    3.41427985854782
C           1.80358157539591    0.72036395632738    4.05866685273523
H           0.33587316712385   -0.83480498852119    4.35691119745310
H           2.12266394782427    1.39257815074233    3.26563880768892
H           2.63570874710276    0.07523088149198    4.32704638577805
H           1.52128031042265    1.30850733796759    4.92930436429791
H          -0.35359045807786    1.31634885104907    2.65920059999297
C           3.95918029364621   -2.07195012092592    0.21669674703031
C           3.65747528513381   -3.24675135915551   -0.70516357891733
H           3.22124426596601   -1.28560602560843    0.08211285277654
H           4.94393234244354   -1.66224478957478    0.00138468140168
H           3.94115353141659   -2.39168626427674    1.25583003719731
C           3.64201448898144   -2.82664433107543   -2.17796519496041
H           2.67950298694498   -3.66541783775592   -0.45645583692352
H           4.40881967492548   -4.02662491334845   -0.56868638971541
O           2.56984628790500   -1.94621567038171   -2.44876899759273
C           3.59327276108172   -4.04760929751057   -3.09897363825944
H           4.55124326823940   -2.25371915074955   -2.40005409228627
H           2.73326792124434   -4.66698410740422   -2.85653298246431
H           4.49640240682027   -4.64127457697302   -2.98645730963118
H           3.51155993117116   -3.72889846761375   -4.13597349012155
H           1.74334775814821   -2.36788501401993   -2.12058098255641
C          -3.01360885303132    0.40549098016459   -3.92082828428066
C          -2.15026916814322    0.91925898038758   -2.77490434073490
H          -3.47312967201948   -0.54089502471069   -3.64482697644557
H          -2.41000677880870    0.24467564381392   -4.81214636537573
H          -3.80061142101555    1.11700919994955   -4.15969815331241
C          -1.10430337111230   -0.11312210699134   -2.34281879421778
H          -2.77982241001971    1.14530443048752   -1.91204513741244
H          -1.64123771385990    1.83637904042166   -3.07560776300278
O          -1.72953624865515   -1.29592917345249   -1.87517887887343
C          -0.17586421877823    0.45666116037640   -1.27482951170015
H          -0.51864239862194   -0.42577422051608   -3.21658249475339
H          -0.75021586202087    0.75090078134800   -0.40069881138225
H           0.35094539491145    1.32679365239151   -1.65204231270916
H           0.55641240510220   -0.28911457153520   -0.97919979615721
H          -2.30619025777510   -1.03699069337873   -1.12854144583063
C          -3.41492423782327   -2.63021208735173    4.19119700231713
C          -3.23762032868683   -1.29141185647702    4.89764546117709
H          -2.95353969830736   -2.59694612538616    3.20742764706654
H          -4.47149020600027   -2.86074398916435    4.06839015006456
H          -2.95346413814541   -3.43050061264247    4.76510056142172
C          -3.77642378839571   -0.12599676069887    4.05793665519955
H          -2.17616785204336   -1.11225249994072    5.08298418271410
H          -3.75378632306701   -1.30536667616787    5.85911686010545
O          -3.09027380095636   -0.03092692875718    2.83032115532343
C          -3.68233819251254    1.19097062031335    4.82772187527480
H          -4.82449834109251   -0.32323145698936    3.79508385891010
H          -2.64041693067223    1.39550269247554    5.06583081356610
H          -4.25534920036911    1.13867395336112    5.74944218070560
H          -4.06702156929645    2.00652313266778    4.21935081066177
H          -2.15242326650565    0.18225367450253    3.03583343305634
C           5.89106771254191    0.57543434256648   -3.06396628114899
C           4.63358412273159    0.51055043408986   -3.92227242964178
H           5.69776066179524    0.14566809725262   -2.08357384308868
H           6.21043158042378    1.60730560946293   -2.93002685946296
H           6.70199840311019    0.02126144719675   -3.53092656409214
C           3.45059440391392    1.24265785728273   -3.27490425855128
H           4.34612312672431   -0.53149613096267   -4.07590266792355
H           4.82886444785131    0.95635394256874   -4.89907283047539
O           3.16863011367240    0.73219004297567   -1.99023210290300
C           2.21978041162084    1.16326262210576   -4.17771067269297
H           3.72392806095808    2.29438447335971   -3.11655160493234
H           1.91999287971111    0.12312757163871   -4.28523632806865
H           2.44111409005569    1.57387257568373   -5.15906451440673
H           1.39304532817569    1.71915308192926   -3.74318777182015
H           2.92424230358406   -0.21111736347417   -2.10096630964102
C          -2.81638965955306    3.20770721959229    0.86507970902804
C          -1.89539761456084    3.73017697290399    1.95987726033793
H          -2.56569345893564    2.17873559917678    0.62602918756628
H          -2.71963460664904    3.80903163576970   -0.03693186275730
H          -3.85121104482923    3.24493897587224    1.19635583922743
C          -0.42332090500623    3.70839302955697    1.53966147324477
H          -2.00562862496507    3.11082632433122    2.85104821179735
H          -2.16692362129855    4.75584817103633    2.21704730046561
O          -0.06171278331064    2.36328877480646    1.30161853458044
C           0.45904609798371    4.33364189096236    2.62096703320742
H          -0.30922704015808    4.28149251615979    0.60460359175261
H           0.35003042280377    3.77980813114302    3.55073289059585
H           0.17288806639283    5.36792582265807    2.79156826323461
H           1.50410338622084    4.30862364995542    2.32022860583886
H           0.87030223791467    2.30642344724323    1.00909498074081
C           5.11929161007466    1.12524448023267    1.80227266011226
C           4.96744196552994    2.13651502806965    0.67262680683064
H           4.29040153716903    0.42289280719145    1.78585990465317
H           5.12608303332032    1.62870358915947    2.76707702522131
H           6.04843439441544    0.57056452588092    1.69711726491487
C           3.61162663007936    2.84590571856841    0.72926759941897
H           5.04059849843329    1.62729744721489   -0.28994234794950
H           5.76296910947670    2.88145712555905    0.72910038635650
O           2.55486565359589    1.93798512910140    0.49218374344618
C           3.55506720044994    4.01393425676269   -0.25627030860602
H           3.44697173476602    3.22085719936182    1.74816701987729
H           3.75103233267702    3.65383022801171   -1.26350682470551
H           4.29696868874844    4.76519138697084    0.00003270000400
H           2.56936237653784    4.47444487519775   -0.23913124453503
H           2.70393783124859    1.52768595294812   -0.38279033184933
C          -1.40045030332644   -5.26417890760018   -0.27299594337416
C          -1.52913395596658   -4.75930440239981   -1.70488403375863
H          -1.00639960563410   -4.47829633899636    0.36630343508645
H          -0.72333461046836   -6.11506147680708   -0.22753353146865
H          -2.36954015061535   -5.57184680995943    0.11138060276835
C          -0.19792717928766   -4.23103993089147   -2.24832622770911
H          -2.25578207285125   -3.94562519868686   -1.74460042529690
H          -1.87954275060380   -5.56498262803115   -2.35233872793220
O           0.25723795830628   -3.12962930571950   -1.48865995955606
C          -0.32847548960946   -3.84707971287990   -3.72254372844794
H           0.57143406326697   -5.00558746979261   -2.13014207150193
H          -1.09936874218233   -3.08697381030231   -3.82885753272805
H          -0.59904581693501   -4.71317343941859   -4.32028439280048
H           0.61166574907120   -3.44465333629520   -4.09297939536356
H          -0.44312108950889   -2.43903542310435   -1.55605083239076
C          -4.48238290217135   -3.08255421342579    0.24848044113694
C          -5.26837709666764   -1.83612436449442    0.63526543017220
H          -3.42057872819167   -2.92309077161410    0.41766426237716
H          -4.63275828546146   -3.31702507445085   -0.80330475263453
H          -4.80332118666617   -3.93537350731678    0.84197937729469
C          -4.79427483849148   -0.59820347562726   -0.13453802421537
H          -5.14130790779494   -1.64465193861409    1.70255283382586
H          -6.33119316443059   -1.98881069852116    0.43938118384879
O          -3.42776185678183   -0.33992995304104    0.10929451885454
C          -5.64297921156823    0.62275248641897    0.22034525046998
H          -4.86411530103627   -0.79055679885234   -1.21257202176581
H          -5.54809951297162    0.83746247919067    1.28278114266949
H          -6.68862642969523    0.44217685158232   -0.01349112266010
H          -5.30088135820083    1.48973501015424   -0.33964556448981
H          -3.31897200726829   -0.21864521545144    1.07345435169742
