15
-233.63327372986
C    -0.0117524   -0.5116066   -1.7379639 
C    -0.1894465    0.6289537   -0.7378040 
H     0.1268685   -0.1246241   -2.7488267 
H    -0.8905716   -1.1614729   -1.7506584 
H     0.8557353   -1.1298263   -1.5012742 
H    -1.0016644    1.2837165   -1.0627763 
H     0.7189303    1.2438532   -0.7120759 
C    -0.5105853    0.1741525    0.6858211 
O    -0.8639938    1.2943644    1.5037394 
C     0.6068479   -0.6341342    1.3325894 
H    -1.4208607   -0.4323955    0.6611978 
H     1.5366572   -0.0562375    1.3521000 
H     0.8004264   -1.5601143    0.7886611 
H     0.3390922   -0.8886068    2.3584488 
H    -0.0956831    1.8739781    1.5688218 
