15
-233.63259055784
C     1.0736557    1.0910141   -0.6883385 
C    -0.3321153    0.5273511   -0.8882217 
H     1.3780741    1.6807105   -1.5544280 
H     1.8168099    0.3031333   -0.5523544 
H     1.1184999    1.7537713    0.1795153 
H    -0.3481348   -0.1157539   -1.7740300 
H    -1.0268371    1.3483865   -1.0822139 
C    -0.8828340   -0.2735568    0.2974425 
O    -1.0444136    0.5494595    1.4576169 
C    -0.0737179   -1.5232565    0.6237615 
H    -1.9028446   -0.5758765    0.0472470 
H     0.9402573   -1.2676952    0.9423320 
H     0.0055439   -2.1775723   -0.2473226 
H    -0.5511234   -2.0782917    1.4318690 
H    -0.1708201    0.7581766    1.8071249 
