15
-233.63337753083
C    -0.1136285    1.5528957   -0.9871057 
C    -0.4943182    0.8605070    0.3186256 
H    -0.2839459    2.6283701   -0.9173795 
H    -0.7101047    1.1777582   -1.8228876 
H     0.9386314    1.4044474   -1.2364528 
H    -1.5255446    1.1070369    0.5825188 
H     0.1330777    1.2220492    1.1389838 
C    -0.3876777   -0.6581366    0.2681379 
O    -0.9382942   -1.1340890    1.5017401 
C     1.0372301   -1.1622023    0.0820411 
H    -1.0055357   -1.0208967   -0.5668466 
H     1.6763923   -0.7948564    0.8880240 
H     1.4542110   -0.8351460   -0.8718833 
H     1.0656797   -2.2552583    0.0927824 
H    -0.8461725   -2.0924793    1.5297018 
