15
-233.63286444239
C     1.6799244    0.1851739   -0.4355931 
C     0.4607777    1.0082325   -0.0243227 
H     2.0068485   -0.4556068    0.3835368 
H     1.4708153   -0.4487671   -1.2992673 
H     2.5096537    0.8410322   -0.7053482 
H     0.1094295    1.6092592   -0.8684867 
H     0.7444963    1.7102653    0.7639583 
C    -0.7191304    0.1913365    0.4965681 
O    -0.2786729   -0.4553197    1.6973882 
C    -1.2603728   -0.8221336   -0.5044126 
H    -1.5239280    0.8965880    0.7468102 
H    -0.5090499   -1.5758550   -0.7420490 
H    -1.5655195   -0.3293775   -1.4305019 
H    -2.1372960   -1.3338076   -0.0983504 
H    -0.9879759   -1.0210204    2.0200704 
