15
-233.63302675603
C     0.4283358    1.6335443    0.0596345 
C    -0.4269893    0.6204345   -0.6976851 
H     0.3499645    2.6222564   -0.3958628 
H     1.4827214    1.3529857    0.0557919 
H     0.1076207    1.7121430    1.0993111 
H    -0.0486243    0.4938733   -1.7172736 
H    -1.4465494    1.0098722   -0.8027982 
C    -0.5167583   -0.7628978   -0.0444701 
O    -1.1159741   -0.6914896    1.2557148 
C     0.8268395   -1.4450026    0.1406944 
H    -1.1409663   -1.3956470   -0.6906901 
H     1.4535226   -0.8834007    0.8341031 
H     1.3495748   -1.5287126   -0.8140412 
H     0.6856620   -2.4461620    0.5486524 
H    -1.9883796   -0.2917972    1.1689188 
