30
-467.28072000026
C    -1.0471542   -2.5105312    0.7488092 
C    -2.2291088   -1.5541645    0.6226432 
H    -1.3829364   -3.5044591    1.0493472 
H    -0.3229389   -2.1609393    1.4841746 
H    -0.5203599   -2.6076633   -0.2025954 
H    -2.7753158   -1.4976628    1.5730092 
H    -2.9425177   -1.9390739   -0.1124412 
C    -1.8406416   -0.1387483    0.2059786 
O    -0.9489130    0.4642663    1.1633893 
C    -3.0456477    0.7591597   -0.0280395 
H    -1.2422668   -0.1884674   -0.7070988 
H    -3.6582804    0.8279617    0.8759232 
H    -3.6743695    0.3638674   -0.8282659 
H    -2.7248023    1.7642941   -0.3029674 
H    -1.3883271    0.4942175    2.0217853 
C     1.6292900   -0.3296827   -2.1338646 
C     1.7060588    0.9327053   -1.2812968 
H     1.0805540   -0.1508304   -3.0610119 
H     1.1343616   -1.1341433   -1.5889588 
H     2.6286611   -0.6828489   -2.4005021 
H     0.6989235    1.3152587   -1.0803071 
H     2.2300225    1.7221174   -1.8298536 
C     2.4122891    0.7176613    0.0598739 
O     1.7821977   -0.3042642    0.8261227 
C     2.5198896    2.0127795    0.8578011 
H     3.4198143    0.3356699   -0.1364830 
H     1.5238100    2.4120477    1.0681531 
H     3.0808163    2.7717691    0.3069042 
H     3.0239356    1.8298583    1.8076857 
H     0.8729557   -0.0201547    1.0220854 
