30
-467.27952259848
C    -0.6631249    0.0508142   -2.5580561 
C    -2.0868318   -0.3901466   -2.2309743 
H    -0.4739455   -0.0142400   -3.6309431 
H     0.0789352   -0.5594148   -2.0441189 
H    -0.5002562    1.0876715   -2.2537894 
H    -2.2608371   -1.4117879   -2.5914214 
H    -2.8035893    0.2436175   -2.7624613 
C    -2.4259598   -0.3423088   -0.7436713 
O    -1.6003010   -1.2464348    0.0151812 
C    -3.8960010   -0.6173282   -0.4655431 
H    -2.1608214    0.6423166   -0.3495579 
H    -4.1856609   -1.5983731   -0.8544613 
H    -4.5288564    0.1311216   -0.9461497 
H    -4.0916261   -0.6009131    0.6069795 
H    -1.7950561   -2.1490018   -0.2657593 
C     3.7657022    0.8367156    2.3453750 
C     3.1467766   -0.0076979    1.2349186 
H     4.8553601    0.7848440    2.3107884 
H     3.4496559    0.4859392    3.3315234 
H     3.4863117    1.8888239    2.2627198 
H     3.5225581   -1.0322024    1.2945155 
H     3.4438244    0.3760422    0.2538010 
C     1.6248457   -0.0811484    1.2785599 
O     1.2362547   -1.0337641    0.2945625 
C     0.9488609    1.2639275    1.0326122 
H     1.3275871   -0.4429885    2.2754493 
H     1.2380210    1.6574971    0.0551807 
H     1.2197083    1.9936811    1.7977962 
H    -0.1374553    1.1533100    1.0514046 
H     0.2659208   -1.0685717    0.2555392 
