30
-467.27929457972
C    -3.6772844   -1.0370030    0.3427814 
C    -2.9858051   -1.2255024   -1.0059550 
H    -4.6886315   -1.4455608    0.3251137 
H    -3.7724944    0.0190606    0.6109077 
H    -3.1294510   -1.5415663    1.1431481 
H    -3.5316416   -0.6891139   -1.7877992 
H    -3.0022955   -2.2853256   -1.2762517 
C    -1.5319730   -0.7635441   -1.0263922 
O    -1.4310431    0.6493640   -0.7518061 
C    -0.8605784   -0.9915056   -2.3663090 
H    -0.9775359   -1.3069974   -0.2488577 
H    -1.3897204   -0.4474958   -3.1513047 
H    -0.8674196   -2.0542408   -2.6142978 
H     0.1728886   -0.6462923   -2.3412703 
H    -1.8824183    0.8390041    0.0779806 
C     2.1723390    0.1830573    2.5908613 
C     1.6507152    0.1364095    1.1564006 
H     1.8402419   -0.6890211    3.1573654 
H     1.8114502    1.0736509    3.1127379 
H     3.2627764    0.1994893    2.6242032 
H     0.5639409    0.0062703    1.1733295 
H     2.0595287   -0.7311326    0.6288507 
C     1.9606848    1.3886622    0.3303323 
O     1.3660750    1.3074470   -0.9597327 
C     3.4476159    1.6071599    0.1104421 
H     1.5550429    2.2605098    0.8682595 
H     3.8838223    0.7400377   -0.3913478 
H     3.9722489    1.7663948    1.0531602 
H     3.6034636    2.4810826   -0.5227071 
H     0.4054576    1.1967016   -0.8618427 
