30
-467.27824344084
C    -1.4655216   -1.5847516   -2.5841193 
C    -1.1862365   -0.1602067   -2.1095790 
H    -1.4230128   -2.2872861   -1.7516790 
H    -2.4454864   -1.6751852   -3.0565064 
H    -0.7179960   -1.8907358   -3.3174658 
H    -1.2667763    0.5395652   -2.9467010 
H    -0.1594564   -0.0967386   -1.7432456 
C    -2.1073149    0.3414557   -1.0012968 
O    -1.8812276   -0.4991043    0.1500195 
C    -3.5835855    0.3508223   -1.3683710 
H    -1.7989493    1.3636330   -0.7478448 
H    -3.9422518   -0.6579919   -1.5735902 
H    -3.7540119    0.9679335   -2.2529615 
H    -4.1834245    0.7679861   -0.5547884 
H    -2.5070985   -0.2613792    0.8423531 
C     3.7086024    0.4630463    2.5905605 
C     2.9610745   -0.3456020    1.5339282 
H     4.7591485    0.1700619    2.6314840 
H     3.2827872    0.3037270    3.5849599 
H     3.6764839    1.5345148    2.3839168 
H     3.0949707   -1.4140095    1.7200394 
H     3.3755757   -0.1488597    0.5401379 
C     1.4608791   -0.0796289    1.4858485 
O     0.9116895   -1.0235131    0.5732549 
C     1.1160182    1.3481316    1.0716352 
H     1.0500813   -0.2595921    2.4921622 
H     1.5360277    1.5657232    0.0865426 
H     1.5043404    2.0774842    1.7849987 
H     0.0332667    1.4786688    1.0184769 
H    -0.0485959   -0.8881689    0.5178306 
