30
-467.27869903667
C    -1.0525051   -0.2048328   -3.3877486 
C    -0.9197399    0.7221290   -2.1808214 
H    -0.4831766    0.1863069   -4.2318994 
H    -2.0884912   -0.3144750   -3.7141927 
H    -0.6542261   -1.2002792   -3.1753941 
H    -1.3007340    1.7159830   -2.4352715 
H     0.1361984    0.8414245   -1.9292349 
C    -1.6484577    0.2492312   -0.9202005 
O    -1.1061994   -0.9972918   -0.4360681 
C    -3.1586037    0.1430567   -1.0710167 
H    -1.4218557    0.9538850   -0.1176612 
H    -3.4324836   -0.6021871   -1.8219214 
H    -3.5832747    1.0999340   -1.3813712 
H    -3.6135442   -0.1468991   -0.1234677 
H    -1.3494712   -1.6992099   -1.0509125 
C     1.7798127    1.2884270    3.0858714 
C     1.2976005    0.8312094    1.7107760 
H     1.2489393    2.1861425    3.4084418 
H     2.8472133    1.5241942    3.0687569 
H     1.6214872    0.5226965    3.8472275 
H     1.3773568    1.6568190    0.9983829 
H     0.2379400    0.5564556    1.7607008 
C     2.0782543   -0.3500950    1.1276542 
O     1.7158806   -0.5706903   -0.2322753 
C     1.9216425   -1.6301028    1.9423597 
H     3.1387549   -0.0788859    1.0947999 
H     0.8667824   -1.9127797    2.0043594 
H     2.3030349   -1.5127687    2.9584788 
H     2.4678193   -2.4437095    1.4635195 
H     0.7740459   -0.8136877   -0.2618713 
