45
-700.93208908411
C    -2.1301810   -2.0204454   -0.5075855 
C    -2.7741851   -1.0418730   -1.4858175 
H    -2.5285357   -3.0272079   -0.6455825 
H    -2.3186682   -1.7263332    0.5258109 
H    -1.0494617   -2.0563187   -0.6527276 
H    -3.8636295   -1.0246548   -1.3496397 
H    -2.6022021   -1.3806989   -2.5117664 
C    -2.2424066    0.3826472   -1.3716800 
O    -2.4705463    0.9204073   -0.0466838 
C    -2.8255548    1.3182338   -2.4173979 
H    -1.1552106    0.3594879   -1.4589778 
H    -3.9168109    1.3587833   -2.3421755 
H    -2.5729410    0.9757017   -3.4227618 
H    -2.4333477    2.3273896   -2.2875544 
H    -3.4188755    0.9295835    0.1281396 
C     1.2790295   -2.0013171    2.5008316 
C     0.7259136   -0.8475854    3.3333795 
H     2.1912410   -2.4005012    2.9484966 
H     1.5135490   -1.6911817    1.4828587 
H     0.5550734   -2.8180298    2.4384323 
H     1.4638052   -0.0419655    3.4039706 
H     0.5354128   -1.1899492    4.3547318 
C    -0.5652558   -0.2529504    2.7880114 
O    -0.2660273    0.3826989    1.5415814 
C    -1.1961044    0.7470735    3.7482488 
H    -1.2759904   -1.0718616    2.6062052 
H    -0.4979843    1.5595740    3.9599813 
H    -1.4677420    0.2647860    4.6899375 
H    -2.1009015    1.1805556    3.3164968 
H    -1.0998475    0.6415531    1.1037281 
C     4.0901755    0.7173019   -2.6598655 
C     2.7825970    0.0052419   -2.3247786 
H     4.5263299    0.3175245   -3.5770688 
H     4.8255641    0.5886695   -1.8611038 
H     3.9445374    1.7891136   -2.8066256 
H     2.9485630   -1.0740142   -2.2777832 
H     2.0456980    0.1728127   -3.1171437 
C     2.1619346    0.4292103   -0.9991326 
O     1.0474291   -0.4311367   -0.7762749 
C     1.7296645    1.8917322   -0.9703246 
H     2.9067909    0.2695324   -0.2042175 
H     1.0276204    2.0933200   -1.7838449 
H     2.5838605    2.5631854   -1.0763001 
H     1.2357597    2.1205651   -0.0245153 
H     0.6518609   -0.2086605    0.0884876 
