45
-700.93672691863
C    -3.6187933    0.0383319    0.9284007 
C    -3.2696133   -1.4381994    0.7613852 
H    -4.6591997    0.1612700    1.2344850 
H    -3.4819825    0.5812345   -0.0074268 
H    -2.9882324    0.5104041    1.6860091 
H    -3.8784442   -1.8789372   -0.0341517 
H    -3.5060908   -1.9819279    1.6806055 
C    -1.8039432   -1.6868757    0.4341302 
O    -1.5095885   -0.9913152   -0.7847283 
C    -1.4784536   -3.1670192    0.2996052 
H    -1.1909104   -1.2585649    1.2410490 
H    -2.0726580   -3.6141694   -0.4998275 
H    -1.6907357   -3.6963667    1.2310668 
H    -0.4223177   -3.3125428    0.0634210 
H    -0.5660807   -1.1277771   -1.0023111 
C     3.3997312   -3.1597443    0.6943714 
C     2.6655126   -2.3847337   -0.3959845 
H     3.7435352   -4.1247927    0.3189235 
H     2.7473614   -3.3511640    1.5504667 
H     4.2752761   -2.6194187    1.0585046 
H     1.8501512   -2.9940123   -0.7953517 
H     3.3351801   -2.1775957   -1.2359750 
C     2.0683542   -1.0662234    0.0780894 
O     1.2574877   -0.5714182   -0.9939446 
C     3.1094764   -0.0289870    0.4744282 
H     1.4259007   -1.2681675    0.9484945 
H     3.7754700    0.1767531   -0.3666281 
H     3.7086460   -0.3716493    1.3194984 
H     2.6236426    0.9040260    0.7674365 
H     0.9151902    0.3098835   -0.7432524 
C     0.4268585    4.0437129    0.9355361 
C     0.2693210    3.7255386   -0.5482915 
H     1.2054708    4.7917105    1.0962992 
H     0.6911899    3.1485049    1.4985099 
H    -0.5042568    4.4360894    1.3524519 
H     1.2186209    3.3656661   -0.9589268 
H     0.0126102    4.6339019   -1.1009576 
C    -0.7973018    2.6783963   -0.8350165 
O    -0.4082529    1.4760890   -0.1601615 
C    -0.9843411    2.4247260   -2.3245105 
H    -1.7491754    3.0211215   -0.4054256 
H    -0.0443250    2.0999449   -2.7764261 
H    -1.3180370    3.3321005   -2.8325974 
H    -1.7300109    1.6455628   -2.4949526 
H    -1.0522422    0.7666337   -0.3563202 
