45
-700.93594877238
C    -4.2937651   -2.2690870    2.1789716 
C    -3.4925401   -1.5360461    1.1066576 
H    -5.3061437   -1.8677556    2.2471306 
H    -3.8285821   -2.1619341    3.1623083 
H    -4.3783310   -3.3360234    1.9655782 
H    -3.5131069   -0.4606453    1.3034412 
H    -3.9491517   -1.6823219    0.1229222 
C    -2.0322464   -1.9610204    1.0246537 
O    -1.4024675   -1.0854157    0.0812853 
C    -1.8379910   -3.4109362    0.6031627 
H    -1.5694198   -1.8133486    2.0106153 
H    -2.3102093   -3.5890148   -0.3657120 
H    -2.2681778   -4.0977821    1.3338085 
H    -0.7742692   -3.6421801    0.5165540 
H    -0.4504566   -1.3074676    0.0266651 
C     3.6699173    0.9438668   -0.0869419 
C     3.6556178   -0.5381193   -0.4513196 
H     4.6745324    1.2708083    0.1863398 
H     3.0152016    1.1562678    0.7600946 
H     3.3390339    1.5583154   -0.9283800 
H     4.0009874   -1.1371493    0.3968413 
H     4.3526037   -0.7197312   -1.2754271 
C     2.2801505   -1.0541330   -0.8687439 
O     1.3425087   -0.9496248    0.2080890 
C     2.3102268   -2.5135101   -1.2844957 
H     1.9196653   -0.4494026   -1.7128968 
H     2.6396961   -3.1356767   -0.4495685 
H     2.9957649   -2.6634165   -2.1200317 
H     1.3172069   -2.8463632   -1.5901522 
H     1.1324767   -0.0126759    0.3884055 
C     0.2328164    4.8317718   -0.6317887 
C     0.4936831    3.5391970    0.1367554 
H     0.8972663    5.6263180   -0.2885002 
H    -0.7949836    5.1759200   -0.4895189 
H     0.3962564    4.7083799   -1.7038441 
H     0.4149092    3.7226563    1.2110867 
H     1.5147072    3.1916172   -0.0463729 
C    -0.4688783    2.4098514   -0.2063029 
O    -0.1846369    1.3348048    0.6969343 
C    -0.3705309    1.9388465   -1.6526547 
H    -1.4933747    2.7595944   -0.0179654 
H     0.6570404    1.6525532   -1.8903280 
H    -0.6768341    2.7232977   -2.3466252 
H    -1.0147653    1.0731345   -1.8156796 
H    -0.8414069    0.6235807    0.5549491 
