45
-700.93530132794
C    -2.6540572   -4.1440107    0.6831628 
C    -1.8300820   -3.0424956    0.0204636 
H    -2.3960357   -5.1219553    0.2732171 
H    -3.7235183   -3.9881862    0.5183287 
H    -2.4860037   -4.1850446    1.7604911 
H    -1.9407760   -3.0995283   -1.0654731 
H    -0.7662994   -3.1920789    0.2368671 
C    -2.2159892   -1.6262406    0.4465388 
O    -1.5203436   -0.6696774   -0.3649462 
C    -1.9754065   -1.3499485    1.9258852 
H    -3.2743335   -1.4678884    0.2177907 
H    -0.9215458   -1.4963234    2.1738844 
H    -2.5752005   -2.0090143    2.5556529 
H    -2.2389265   -0.3190139    2.1661269 
H    -0.5599439   -0.8063549   -0.2379583 
C     2.5598712   -2.8595425    0.9092576 
C     2.6767487   -1.9827996   -0.3338943 
H     2.7384631   -3.9087994    0.6670065 
H     1.5678569   -2.7763271    1.3530520 
H     3.2885631   -2.5628662    1.6678961 
H     1.9613967   -2.3122175   -1.0948793 
H     3.6732830   -2.0876089   -0.7724090 
C     2.4302361   -0.5050724   -0.0615074 
O     1.1037404   -0.3877546    0.4584272 
C     2.6094833    0.3530209   -1.3059320 
H     3.1368311   -0.1690035    0.7105833 
H     1.9121283    0.0416862   -2.0866968 
H     3.6269635    0.2650867   -1.6927956 
H     2.4252617    1.4057746   -1.0825834 
H     0.8457791    0.5482130    0.5603578 
C     0.0910232    5.3505725   -0.5335795 
C     0.2666951    3.9778957    0.1096716 
H     0.8357734    6.0532835   -0.1565064 
H    -0.8960585    5.7655212   -0.3138640 
H     0.1996805    5.3082761   -1.6187074 
H     0.2438751    4.0716023    1.1982817 
H     1.2474267    3.5641858   -0.1481531 
C    -0.8013637    2.9662419   -0.2858340 
O    -0.5915903    1.8093395    0.5304306 
C    -0.7802842    2.5999227   -1.7643972 
H    -1.7854246    3.3905684   -0.0403903 
H     0.2076287    2.2360360   -2.0544241 
H    -1.0284350    3.4615198   -2.3863205 
H    -1.5063603    1.8123912   -1.9742073 
H    -1.1807304    1.0886150    0.2320854 
