45
-700.93477817781
C    -2.8882594   -3.0866292   -2.3449279 
C    -2.0198611   -2.1410482   -1.5180599 
H    -2.6893464   -2.9637118   -3.4109157 
H    -3.9513351   -2.8891149   -2.1821448 
H    -2.7028567   -4.1325623   -2.0954892 
H    -2.1511590   -1.1170500   -1.8753982 
H    -0.9607451   -2.3831764   -1.6560552 
C    -2.3296346   -2.1531751   -0.0206364 
O    -1.5886858   -1.1308965    0.6526700 
C    -2.0746123   -3.5022105    0.6396947 
H    -3.3796033   -1.8794145    0.1239252 
H    -1.0356294   -3.8091359    0.4888993 
H    -2.7210784   -4.2789703    0.2282230 
H    -2.2606406   -3.4329966    1.7118636 
H    -0.6327954   -1.2806755    0.5042187 
C     4.4842879    0.2643043    1.4881570 
C     3.2347342    0.2808994    0.6108055 
H     5.2543751    0.9209356    1.0797487 
H     4.9071373   -0.7419185    1.5509088 
H     4.2719840    0.5999339    2.5044424 
H     3.5036611    0.0418925   -0.4212930 
H     2.8019480    1.2875566    0.5983691 
C     2.1507668   -0.7065269    1.0421593 
O     1.1123325   -0.7483912    0.0538327 
C     1.5696273   -0.4072843    2.4189228 
H     2.5759008   -1.7150038    1.0420473 
H     1.1349815    0.5949501    2.4389485 
H     2.3345242   -0.4693401    3.1946376 
H     0.7815800   -1.1215239    2.6610912 
H     0.7251297    0.1474398   -0.0182606 
C     0.7634949    3.9985445    0.4066198 
C     0.1488710    3.3949037   -0.8527144 
H     1.6156545    4.6346768    0.1603884 
H     1.1058598    3.2181283    1.0861080 
H     0.0341923    4.6097748    0.9442318 
H     0.9002973    2.8115730   -1.3953333 
H    -0.1783425    4.1915071   -1.5270532 
C    -1.0427786    2.4887503   -0.5740243 
O    -0.5780063    1.4273199    0.2638622 
C    -1.6710457    1.9455701   -1.8494933 
H    -1.7974236    3.0639632   -0.0190509 
H    -0.9410861    1.3625209   -2.4152742 
H    -2.0300923    2.7609526   -2.4810454 
H    -2.5210204    1.2996294   -1.6199333 
H    -1.2653019    0.7450296    0.3823279 
