60
-934.59874801712
C    -3.3418466   -0.1553489    2.0342012 
C    -2.9809196   -1.6174142    1.7849624 
H    -4.4244307   -0.0264114    2.0906980 
H    -2.9704947    0.4948095    1.2420978 
H    -2.9142543    0.1968497    2.9758558 
H    -3.4390226   -1.9694772    0.8553649 
H    -3.3893688   -2.2369288    2.5885993 
C    -1.4840987   -1.8817871    1.7039175 
O    -0.9695174   -1.1997886    0.5555194 
C    -1.1584758   -3.3665719    1.6139217 
H    -1.0057925   -1.4653768    2.6012410 
H    -1.6349895   -3.8053776    0.7346739 
H    -1.5090909   -3.8960402    2.5026145 
H    -0.0804179   -3.5177734    1.5320933 
H     0.0122842   -1.2804205    0.5444549 
C    -3.2712942   -0.4222532   -2.0816814 
C    -2.6282340    0.8549624   -2.6136178 
H    -4.2784085   -0.5476222   -2.4834987 
H    -3.3487908   -0.4066473   -0.9951517 
H    -2.6867410   -1.3032888   -2.3572839 
H    -3.2124418    1.7274967   -2.3046720 
H    -2.6349944    0.8400153   -3.7081690 
C    -1.1859995    1.0623011   -2.1582380 
O    -1.1060275    1.2045065   -0.7309370 
C    -0.5666782    2.3088257   -2.7658575 
H    -0.5950701    0.1863653   -2.4547093 
H    -1.1234761    3.1951624   -2.4533766 
H    -0.5874897    2.2550758   -3.8554825 
H     0.4695396    2.4214365   -2.4451640 
H    -1.2423130    0.3360175   -0.2948281 
C     1.0105709   -2.3032441   -2.1895725 
C     2.2738740   -1.5258868   -1.8306863 
H     0.7527989   -2.1668424   -3.2417992 
H     0.1560207   -1.9871336   -1.5919247 
H     1.1521882   -3.3740182   -2.0205024 
H     2.1437856   -0.4609959   -2.0505215 
H     3.1038710   -1.8718339   -2.4547725 
C     2.6891565   -1.6598478   -0.3647322 
O     1.7283503   -1.0568132    0.5116055 
C     4.0702848   -1.0738364   -0.1030138 
H     2.6904244   -2.7201943   -0.0929891 
H     4.0951102   -0.0186514   -0.3856234 
H     4.8325952   -1.5990286   -0.6819885 
H     4.3220999   -1.1539569    0.9552834 
H     1.7517512   -0.0791448    0.3816628 
C    -0.0359236    1.7742682    2.6250848 
C     1.4208024    2.1691418    2.4049730 
H    -0.2112429    1.4954697    3.6658042 
H    -0.3164935    0.9245503    2.0042610 
H    -0.7114887    2.5979790    2.3812861 
H     2.0758854    1.3226367    2.6358505 
H     1.6945459    2.9758349    3.0923968 
C     1.7274623    2.6361530    0.9823485 
O     1.4696620    1.5994823    0.0256390 
C     3.1785024    3.0530355    0.8168284 
H     1.0776410    3.4875602    0.7432098 
H     3.8400432    2.2116495    1.0355407 
H     3.4278868    3.8694605    1.4968281 
H     3.3675291    3.3803037   -0.2060544 
H     0.5111614    1.5686069   -0.2019708 
