60
-934.59450665873
C    -0.4557184   -4.2886728    1.0958600 
C    -1.8769773   -3.8340416    0.7751488 
H    -0.4638426   -5.1876626    1.7147408 
H     0.1032352   -3.5198773    1.6303761 
H     0.0948505   -4.5227596    0.1803536 
H    -2.4255415   -3.6295675    1.6997323 
H    -2.4110973   -4.6377399    0.2581486 
C    -1.9408749   -2.5811615   -0.0968586 
O    -1.3908321   -1.4516506    0.5855631 
C    -3.3631959   -2.2250577   -0.4906874 
H    -1.3548468   -2.7630018   -1.0099171 
H    -3.9511897   -1.9865570    0.3982519 
H    -3.8411950   -3.0577921   -1.0088486 
H    -3.3755563   -1.3583765   -1.1526689 
H    -0.4101418   -1.5303977    0.6438773 
C    -3.8256155    1.8908862   -2.6529886 
C    -3.2895813    1.7601518   -1.2294223 
H    -4.9147964    1.9575582   -2.6542108 
H    -3.5471525    1.0249516   -3.2599011 
H    -3.4423501    2.7823055   -3.1525134 
H    -3.7683731    0.9101870   -0.7364606 
H    -3.5483885    2.6442836   -0.6390933 
C    -1.7767037    1.5557695   -1.1511341 
O    -1.3980307    1.2479159    0.1964616 
C    -0.9803138    2.7746960   -1.5834073 
H    -1.5034092    0.7072889   -1.7931971 
H    -1.2204180    3.6263903   -0.9425666 
H    -1.2058954    3.0453732   -2.6151185 
H     0.0900950    2.5811826   -1.5071365 
H    -1.5765616    0.2955107    0.3618376 
C     1.8977477   -1.3613842   -3.1026847 
C     1.3641742   -0.9242888   -1.7407720 
H     1.3378074   -0.8858731   -3.9098747 
H     1.8096386   -2.4435726   -3.2318947 
H     2.9480840   -1.0958609   -3.2322206 
H     0.2879127   -1.1090338   -1.6945976 
H     1.5011081    0.1534740   -1.6095915 
C     2.0129203   -1.6432369   -0.5554856 
O     1.3262455   -1.3270286    0.6619768 
C     3.4981823   -1.3423523   -0.4065963 
H     1.8773458   -2.7220354   -0.6827463 
H     3.6562101   -0.2671921   -0.2908489 
H     4.0633525   -1.6806476   -1.2764650 
H     3.8935361   -1.8465497    0.4758384 
H     1.3977659   -0.3541890    0.8142017 
C     3.2685119    2.4216522    3.8747591 
C     2.8948503    1.8880071    2.4947030 
H     4.3155016    2.2122871    4.0997801 
H     2.6627043    1.9547552    4.6556632 
H     3.1277166    3.5015769    3.9454855 
H     3.1402105    0.8242370    2.4345216 
H     3.4835749    2.3896779    1.7202545 
C     1.4192315    2.0422634    2.1487819 
O     1.2165935    1.3695170    0.8999874 
C     0.9590295    3.4891157    2.0415729 
H     0.8250651    1.5376458    2.9236113 
H     1.5507640    4.0186979    1.2912417 
H     1.0594865    4.0078558    2.9962147 
H    -0.0908234    3.5305201    1.7466273 
H     0.2659705    1.4318269    0.6443358 
