60
-934.59376992403
C    -4.4803288   -1.3396310    0.9302812 
C    -3.0233595   -0.9540102    0.6858931 
H    -5.0498434   -1.3148691   -0.0002450 
H    -4.9577470   -0.6474543    1.6288004 
H    -4.5709884   -2.3451084    1.3440521 
H    -2.9825874    0.0113650    0.1763874 
H    -2.5538737   -1.6799438    0.0153740 
C    -2.1843903   -0.8427717    1.9605386 
O    -0.9061079   -0.2681114    1.6782955 
C    -2.0120374   -2.1672411    2.6921552 
H    -2.6696178   -0.1266066    2.6313034 
H    -1.5278594   -2.9022519    2.0439923 
H    -2.9721569   -2.5745120    3.0125180 
H    -1.3867973   -2.0269909    3.5741686 
H    -0.3887237   -0.8522185    1.0772825 
C    -3.1253301    2.8867145   -1.4913135 
C    -2.1931206    2.8591620   -0.2826898 
H    -4.1186559    3.2401065   -1.2099527 
H    -3.2392653    1.8884500   -1.9228297 
H    -2.7528027    3.5463245   -2.2767676 
H    -2.6466776    2.2585687    0.5110077 
H    -2.0644333    3.8651466    0.1275036 
C    -0.8111433    2.2774778   -0.5796646 
O    -0.0840633    2.0949048    0.6412748 
C     0.0355299    3.1572271   -1.4815687 
H    -0.9436868    1.2973255   -1.0600443 
H     0.1936059    4.1307125   -1.0122268 
H    -0.4480801    3.3109608   -2.4466458 
H     1.0090087    2.6993847   -1.6590191 
H    -0.4986830    1.3487126    1.1301130 
C     1.5996590   -0.3400137   -2.9017691 
C     1.2057127   -1.7693869   -2.5344140 
H     2.2815791   -0.3353375   -3.7541382 
H     2.0967894    0.1734746   -2.0789488 
H     0.7190536    0.2451930   -3.1802776 
H     2.0903121   -2.3504844   -2.2555986 
H     0.7726100   -2.2602943   -3.4112731 
C     0.1897789   -1.8752882   -1.3994391 
O     0.7430552   -1.4991773   -0.1332588 
C    -0.3353971   -3.2919291   -1.2403898 
H    -0.6529460   -1.2051087   -1.6284594 
H     0.4918987   -3.9816277   -1.0617079 
H    -0.8697066   -3.6092241   -2.1375337 
H    -1.0187521   -3.3585714   -0.3931493 
H     1.3351390   -0.7172341   -0.2026770 
C     4.2251396   -1.3733510    0.3859056 
C     4.3266664   -0.0340446    1.1102107 
H     5.2126084   -1.8209904    0.2575212 
H     3.7827038   -1.2522501   -0.6026074 
H     3.6029783   -2.0786161    0.9414006 
H     4.9035534    0.6738561    0.5064595 
H     4.8688119   -0.1626668    2.0519033 
C     2.9816872    0.6016226    1.4336985 
O     2.2630647    0.7732864    0.2020333 
C     3.1306911    1.9349289    2.1514389 
H     2.4118615   -0.0869532    2.0739839 
H     3.7025772    2.6335168    1.5364712 
H     3.6516778    1.8019253    3.1019444 
H     2.1545592    2.3778283    2.3559771 
H     1.4868502    1.3560946    0.3687197 
