60
-934.59477151796
C    -4.0682537   -1.2209063   -1.0719029 
C    -3.2936549   -2.4119050   -0.5158871 
H    -4.8304471   -1.5477719   -1.7814849 
H    -3.4029609   -0.5283282   -1.5878119 
H    -4.5728889   -0.6704504   -0.2747750 
H    -2.8373036   -2.9757211   -1.3353958 
H    -3.9784524   -3.0930744   -0.0012901 
C    -2.1873863   -2.0246970    0.4580783 
O    -1.2767513   -1.1595646   -0.2302654 
C    -1.4681971   -3.2370040    1.0269861 
H    -2.6367704   -1.4637901    1.2911588 
H    -1.0146061   -3.8243442    0.2257938 
H    -2.1687680   -3.8752222    1.5687532 
H    -0.6810322   -2.9323781    1.7182785 
H    -0.3651948   -1.2465974    0.1247882 
C    -4.2224898    2.4649234    0.2524461 
C    -3.3899058    1.8206681    1.3553395 
H    -5.2854862    2.2579247    0.3897116 
H    -3.9258068    2.0905139   -0.7269874 
H    -4.0911761    3.5499628    0.2476859 
H    -3.5739461    0.7416151    1.3835204 
H    -3.6956499    2.2091741    2.3317490 
C    -1.8881772    2.0508821    1.2008996 
O    -1.4205671    1.5730976   -0.0681001 
C    -1.0880809    1.4395318    2.3449127 
H    -1.7027733    3.1290502    1.1705291 
H    -1.2364549    0.3580747    2.3863876 
H    -1.4008214    1.8623487    3.3020207 
H    -0.0218626    1.6285987    2.2174226 
H    -1.5058412    0.5919562   -0.1078381 
C     3.8522143    0.1592111    1.8340251 
C     3.4476581   -1.3065214    1.7076304 
H     4.4759091    0.3175717    2.7156677 
H     2.9793778    0.8074284    1.9199334 
H     4.4205756    0.4875061    0.9606640 
H     2.9222985   -1.6306570    2.6116374 
H     4.3430526   -1.9303998    1.6195705 
C     2.5410304   -1.5948896    0.5120188 
O     1.2983521   -0.8965693    0.6411315 
C     2.2351811   -3.0748919    0.3665375 
H     3.0425077   -1.2476658   -0.4014508 
H     1.7390689   -3.4518431    1.2631659 
H     3.1543368   -3.6444370    0.2198077 
H     1.5795936   -3.2494312   -0.4874372 
H     1.4048900    0.0332776    0.3336627 
C     3.7701112    2.1861566   -3.1077691 
C     3.1810230    1.8006236   -1.7537756 
H     4.8601404    2.2115230   -3.0626484 
H     3.4287165    3.1768769   -3.4184733 
H     3.4906191    1.4780952   -3.8897534 
H     3.5546645    2.4747027   -0.9792041 
H     3.5098595    0.7942358   -1.4766251 
C     1.6591601    1.8447009   -1.7058604 
O     1.2760093    1.6477394   -0.3379734 
C     0.9886068    0.8137246   -2.6057644 
H     1.3334894    2.8483448   -2.0104097 
H     1.3127156   -0.1947329   -2.3388590 
H     1.2305870    0.9903751   -3.6550940 
H    -0.0958511    0.8591111   -2.4984792 
H     0.2958091    1.7342670   -0.2705988 
