75
-1168.24951949520
C    -4.2080187   -1.6772514   -0.3705401 
C    -4.4440200   -0.4372493    0.4854152 
H    -3.1702367   -1.7419883   -0.6959673 
H    -4.8345248   -1.6590601   -1.2662562 
H    -4.4455049   -2.5878147    0.1825928 
C    -4.0832292    0.8698158   -0.2198741 
H    -3.8613910   -0.4997108    1.4099190 
H    -5.4959854   -0.3876405    0.7840464 
O    -2.6980729    0.9061608   -0.5761235 
C    -4.4394281    2.0929132    0.6148832 
H    -4.6187734    0.9156875   -1.1734399 
H    -3.9079744    2.0681730    1.5699280 
H    -5.5107063    2.1256418    0.8237124 
H    -4.1603502    3.0068057    0.0888733 
H    -2.1483121    0.9676808    0.2392114 
C     0.5278068    1.1590456    4.0638469 
C     0.9853046    1.7247185    2.7232057 
H    -0.0601377    0.2515368    3.9242707 
H    -0.0955324    1.8785411    4.6007135 
H     1.3815707    0.9173208    4.6997110 
C    -0.1637849    2.0669644    1.7782546 
H     1.6401722    1.0066006    2.2200277 
H     1.5819065    2.6282640    2.8805811 
O    -0.9616046    0.9018419    1.5182148 
C     0.3144419    2.6945662    0.4752557 
H    -0.8438695    2.7590048    2.2846157 
H     0.9567416    2.0049447   -0.0757767 
H     0.8811587    3.6075753    0.6712077 
H    -0.5338564    2.9474939   -0.1607874 
H    -0.3774653    0.1805131    1.1961439 
C    -1.5057122   -2.4923016    2.1743082 
C    -0.7515921   -3.1093781    1.0011532 
H    -1.6945198   -1.4307033    2.0232154 
H    -0.9379355   -2.5989307    3.1024220 
H    -2.4696516   -2.9837918    2.3172212 
C     0.6174145   -2.4876563    0.7355383 
H    -1.3446044   -3.0335500    0.0848629 
H    -0.6022870   -4.1778922    1.1844411 
O     0.5023100   -1.1102321    0.3281462 
C     1.4132934   -3.2792858   -0.2926619 
H     1.1768966   -2.4466649    1.6748359 
H     0.8462285   -3.3807677   -1.2195398 
H     1.6325619   -4.2801825    0.0840079 
H     2.3553400   -2.7819607   -0.5245282 
H     0.0201000   -1.0487601   -0.5379658 
C    -0.9039341    2.1203067   -3.2088973 
C     0.1403647    1.0099703   -3.2926392 
H    -1.4765108    2.0746914   -2.2825952 
H    -1.6124178    2.0530649   -4.0395385 
H    -0.4291008    3.1023295   -3.2595586 
C    -0.4348976   -0.4030834   -3.2149058 
H     0.8876459    1.1114874   -2.5016669 
H     0.6803757    1.0951371   -4.2411216 
O    -0.9344017   -0.7157716   -1.9016233 
C     0.6084636   -1.4541209   -3.5488823 
H    -1.2737064   -0.4897097   -3.9184365 
H     1.4741372   -1.3512421   -2.8921442 
H     0.9468212   -1.3363954   -4.5794682 
H     0.1924161   -2.4563775   -3.4368672 
H    -1.6493067   -0.1044944   -1.6240536 
C     4.1339300   -0.8585469    1.5778697 
C     4.7277399   -0.0469238    0.4303864 
H     4.8871906   -1.5002848    2.0384272 
H     3.3233167   -1.5021126    1.2347653 
H     3.7341122   -0.2049107    2.3572361 
H     5.1462525   -0.7165404   -0.3275187 
H     5.5547619    0.5627942    0.8081331 
C     3.7240061    0.8787544   -0.2586146 
O     2.6991159    0.1486641   -0.9281102 
C     4.3850723    1.7568721   -1.3068647 
H     3.2701399    1.5252157    0.5061464 
H     4.8306658    1.1369843   -2.0880253 
H     5.1688044    2.3729428   -0.8624665 
H     3.6475799    2.4118812   -1.7721354 
H     2.0871970   -0.2696195   -0.2981526 
