75
-1168.24182291530
C     1.4193600   -0.1815488   -3.2547470 
C     1.1723362   -1.4104117   -2.3832432 
H     2.4814213    0.0694448   -3.2780192 
H     0.8893400    0.6976048   -2.8840789 
H     1.0992346   -0.3578840   -4.2856432 
H     1.5124070   -1.2385857   -1.3595838 
H     1.7552789   -2.2530327   -2.7688234 
C    -0.2882070   -1.8479838   -2.3249163 
O    -1.1204478   -0.8400359   -1.7203391 
C    -0.4773901   -3.1074772   -1.5008087 
H    -0.6566278   -2.0153306   -3.3459941 
H    -0.0965958   -2.9495435   -0.4910950 
H     0.0686664   -3.9401380   -1.9474863 
H    -1.5336489   -3.3759618   -1.4501152 
H    -1.0555377    0.0073222   -2.1923847 
C    -4.0357592    1.4281684   -2.1310143 
C    -3.4417789    2.6930171   -1.5183372 
H    -5.0431951    1.2473935   -1.7514713 
H    -3.4298763    0.5504903   -1.9052281 
H    -4.1016307    1.5152191   -3.2185973 
H    -3.3966980    2.5952186   -0.4272142 
H    -4.0953269    3.5471195   -1.7204399 
C    -2.0418507    3.0331587   -2.0288540 
O    -1.1212538    1.9666262   -1.7772072 
C    -1.5135800    4.3342320   -1.4387646 
H    -2.0742207    3.1201217   -3.1191651 
H    -1.4754669    4.2723609   -0.3477296 
H    -2.1552827    5.1762717   -1.7071562 
H    -0.5057194    4.5339864   -1.8038850 
H    -1.1673020    1.7285472   -0.8315936 
C    -3.2269842   -1.7364310    2.8325355 
C    -2.0411672   -1.2381162    2.0108222 
H    -3.0788598   -2.7756993    3.1294371 
H    -4.1560554   -1.6856116    2.2583613 
H    -3.3652232   -1.1518170    3.7436224 
H    -1.8729400   -1.9147951    1.1689859 
H    -1.1241185   -1.2575677    2.6057739 
C    -2.2296707    0.1689404    1.4496293 
O    -1.1133141    0.5066258    0.6043921 
C    -2.3207900    1.2515927    2.5084792 
H    -3.1383563    0.1863959    0.8337313 
H    -1.4311219    1.2406405    3.1416383 
H    -3.1981859    1.1068950    3.1385456 
H    -2.3978513    2.2348779    2.0415611 
H    -1.0264769   -0.1776590   -0.1010932 
C     3.2760767    2.5989724   -0.7947344 
C     2.2921260    1.6239853   -0.1539448 
H     3.4455493    2.3419483   -1.8416178 
H     4.2439117    2.5762999   -0.2864719 
H     2.9081728    3.6259642   -0.7658992 
H     2.6455744    0.6009340   -0.2967961 
H     1.3249065    1.6955103   -0.6590753 
C     2.0821275    1.8384135    1.3450758 
O     1.3038029    0.7723573    1.9023535 
C     1.4413121    3.1798264    1.6783397 
H     3.0507698    1.7711365    1.8505559 
H     0.4812013    3.2793607    1.1653693 
H     2.0758933    4.0130533    1.3726568 
H     1.2681163    3.2556416    2.7523271 
H     0.4277460    0.7604911    1.4618897 
C     1.3000179   -4.7333812    1.8039133 
C     2.5045458   -4.0564620    1.1571225 
H     1.1917458   -5.7629490    1.4567096 
H     0.3820936   -4.1949566    1.5691960 
H     1.4030512   -4.7568768    2.8920095 
H     2.4071170   -4.0799469    0.0668190 
H     3.4185055   -4.6043764    1.4050970 
C     2.6809785   -2.6038421    1.5818729 
O     1.5256010   -1.8917122    1.1557791 
C     3.9490135   -1.9849097    1.0024526 
H     2.7437976   -2.5701405    2.6804242 
H     3.9201595   -2.0174050   -0.0891512 
H     4.8386315   -2.5203992    1.3428592 
H     4.0447900   -0.9418063    1.3109558 
H     1.5731329   -0.9713713    1.4814258 
