90
-1401.90339674752
C    -2.9064823   -2.3513065    0.5248489 
C    -2.2892337   -2.4323182    1.9170953 
H    -3.2726369   -3.3265863    0.2001362 
H    -2.1802904   -2.0105943   -0.2130053 
H    -3.7503120   -1.6575483    0.5085907 
H    -1.4913753   -3.1812709    1.9285193 
H    -3.0419903   -2.7664519    2.6375928 
C    -1.7043753   -1.1096003    2.4101867 
O    -0.6200074   -0.6926390    1.5677112 
C    -1.1785317   -1.2012175    3.8328801 
H    -2.4855958   -0.3402645    2.3660057 
H    -0.3744697   -1.9372044    3.8911793 
H    -1.9707810   -1.5006748    4.5215574 
H    -0.7808749   -0.2387450    4.1546958 
H    -0.9303279   -0.0362344    0.9114464 
C     2.0047942   -3.2598768    2.2252831 
C     2.6200259   -3.2881304    0.8298147 
H     2.3997322   -4.0682930    2.8432136 
H     0.9218122   -3.3793529    2.1778444 
H     2.2152826   -2.3157125    2.7311245 
H     2.3888846   -4.2390026    0.3388307 
H     3.7102836   -3.2275212    0.9071185 
C     2.1485522   -2.1538431   -0.0773727 
O     0.7228306   -2.2025942   -0.2514209 
C     2.7776194   -2.2338213   -1.4574051 
H     2.4012336   -1.1923736    0.3822586 
H     2.4760664   -3.1584433   -1.9550730 
H     3.8662524   -2.2218134   -1.3874837 
H     2.4668739   -1.3906254   -2.0747470 
H     0.2847578   -1.7601613    0.5093223 
C    -3.8402472    0.4737300   -1.8923319 
C    -3.6372473    1.3461731   -0.6577085 
H    -4.8430638    0.0437439   -1.9063790 
H    -3.1293175   -0.3521536   -1.9221920 
H    -3.7161914    1.0570760   -2.8082683 
H    -3.7863036    0.7545859    0.2506741 
H    -4.3899814    2.1399612   -0.6407594 
C    -2.2646336    2.0070610   -0.5778209 
O    -1.2162128    1.0256524   -0.4799827 
C    -2.1297951    2.9158981    0.6291179 
H    -2.0959874    2.5875776   -1.4927487 
H    -2.3284195    2.3584373    1.5475285 
H    -2.8464478    3.7361473    0.5678912 
H    -1.1259395    3.3345882    0.7023665 
H    -1.1516110    0.4522092   -1.2775094 
C    -0.9777709   -3.6931284   -2.9215527 
C    -1.3736222   -2.4596838   -3.7283809 
H    -1.7029957   -4.4971729   -3.0589247 
H    -0.9132212   -3.4775432   -1.8551973 
H    -0.0012536   -4.0688060   -3.2385301 
H    -2.3709032   -2.1184540   -3.4337230 
H    -1.4314972   -2.7194403   -4.7902068 
C    -0.4065596   -1.2863169   -3.5788291 
O    -0.4022481   -0.7762762   -2.2432600 
C    -0.7535904   -0.1282477   -4.4980241 
H     0.6072329   -1.6362093   -3.8152765 
H    -1.7567496    0.2437869   -4.2794542 
H    -0.7252803   -0.4415374   -5.5426253 
H    -0.0464597    0.6911288   -4.3633079 
H     0.0494784   -1.3862780   -1.6119029 
C     0.7044304    3.4884081   -2.2627052 
C     2.1440866    3.1276932   -1.9120618 
H     0.6489262    4.4769323   -2.7215517 
H     0.0784214    3.5071114   -1.3711796 
H     0.2742165    2.7685644   -2.9643189 
H     2.5267047    3.8247078   -1.1601659 
H     2.7782113    3.2358835   -2.7978007 
C     2.3178446    1.7039303   -1.3833326 
O     1.5533802    1.4784093   -0.1947293 
C     3.7665141    1.4068608   -1.0394527 
H     1.9704677    0.9984786   -2.1495134 
H     4.1157826    2.0920992   -0.2640524 
H     4.4042652    1.5264683   -1.9169484 
H     3.8744196    0.3885019   -0.6684527 
H     0.6043288    1.4126624   -0.4057465 
C     2.4861524    0.7531927    3.0281740 
C     1.7547244    1.8260657    3.8295848 
H     3.1941857    0.2085020    3.6567315 
H     3.0427913    1.1885883    2.1979181 
H     1.7764661    0.0386284    2.6079123 
H     2.4653365    2.5653610    4.2131995 
H     1.2741162    1.3661662    4.7000103 
C     0.6809876    2.5641212    3.0271496 
O     1.2368912    3.2824262    1.9285471 
C    -0.0723852    3.5695904    3.8813128 
H    -0.0269525    1.8151019    2.6470006 
H     0.6134993    4.3345861    4.2522939 
H    -0.5419151    3.0811946    4.7377529 
H    -0.8467679    4.0655257    3.2946923 
H     1.4799924    2.6519493    1.2263017 
