90
-1401.88580587722
C    -5.6405236    0.2997099    1.2800407 
C    -5.1258090   -0.1544939   -0.0832420 
H    -5.6992703    1.3874623    1.3324323 
H    -4.9769696   -0.0175609    2.0880400 
H    -6.6398932   -0.0959505    1.4818399 
H    -4.1165255    0.2327164   -0.2445194 
H    -5.7590425    0.2619429   -0.8721233 
C    -5.1043780   -1.6715802   -0.2572116 
O    -4.2581525   -2.3037956    0.7315934 
C    -4.5725687   -2.1030513   -1.6097390 
H    -6.1219459   -2.0605666   -0.1262494 
H    -3.5423190   -1.7682428   -1.7378977 
H    -5.1744951   -1.6711676   -2.4103711 
H    -4.5941638   -3.1888280   -1.7026977 
H    -4.6467786   -2.1697795    1.6032416 
C    -1.7883211    0.4204358    3.2123091 
C    -1.3530017   -1.0155214    2.9388949 
H    -2.1827741    0.5277284    4.2244846 
H    -2.5592814    0.7367779    2.5088765 
H    -0.9445447    1.1053594    3.1080042 
H    -2.1880099   -1.7062169    3.1089224 
H    -0.5698613   -1.3078703    3.6428000 
C    -0.8246915   -1.2303281    1.5238791 
O    -1.8359225   -0.8954755    0.5525610 
C    -0.3164478   -2.6449063    1.2930588 
H    -0.0202529   -0.5162554    1.3354980 
H    -1.1149397   -3.3737278    1.4574414 
H     0.5032688   -2.8766983    1.9745918 
H     0.0489454   -2.7555073    0.2718747 
H    -2.6005748   -1.4943444    0.6576482 
C    -2.8962236    0.4203122   -4.4175825 
C    -2.0923536    0.6063802   -3.1335585 
H    -3.7231138    1.1307897   -4.4663253 
H    -3.3195824   -0.5859656   -4.4730284 
H    -2.2817345    0.5708407   -5.3065332 
H    -2.7638816    0.5390129   -2.2731343 
H    -1.6511299    1.6071673   -3.1027373 
C    -0.9765670   -0.4233886   -2.9440899 
O    -0.4109954   -0.3186561   -1.6384291 
C     0.1650138   -0.2695582   -3.9334723 
H    -1.4083797   -1.4279855   -3.0563174 
H     0.6166102    0.7203870   -3.8370570 
H    -0.1810142   -0.3932392   -4.9598654 
H     0.9349617   -1.0156758   -3.7365224 
H    -1.0636544   -0.5731074   -0.9467837 
C     0.9520516    4.8675662   -1.7913401 
C     1.0908022    3.3533261   -1.6549244 
H     1.3322321    5.2074778   -2.7560927 
H     1.5188571    5.3842476   -1.0125825 
H    -0.0879647    5.1897785   -1.7156281 
H     2.1276262    3.0597208   -1.8376178 
H     0.4828747    2.8523684   -2.4161797 
C     0.6957970    2.8094583   -0.2815497 
O     1.0436748    1.4257026   -0.1785605 
C    -0.7762646    3.0062767    0.0565596 
H     1.3058379    3.3085166    0.4777373 
H    -1.4090028    2.5254439   -0.6930963 
H    -1.0359807    4.0652220    0.0965689 
H    -1.0006196    2.5601127    1.0251065 
H     0.5068363    0.8986531   -0.8111097 
C     6.1145637    0.5193404   -1.8612239 
C     5.2664708   -0.6821614   -1.4560969 
H     7.1697200    0.2488889   -1.9358621 
H     6.0185034    1.3217668   -1.1300784 
H     5.8007945    0.9111594   -2.8329954 
H     5.6111649   -1.0790404   -0.4961707 
H     5.3790298   -1.4857194   -2.1901817 
C     3.7835563   -0.3598419   -1.3264222 
O     3.6471573    0.6286335   -0.3007564 
C     2.9474207   -1.5951557   -1.0112807 
H     3.4342132    0.0741827   -2.2749114 
H     3.2731742   -2.0372840   -0.0675329 
H     3.0564418   -2.3441722   -1.7998835 
H     1.8898305   -1.3400637   -0.9364016 
H     2.7152622    0.9353744   -0.2739810 
C     2.2032712   -2.0711682    4.8721350 
C     3.4102931   -1.5282192    4.1122928 
H     2.5193396   -2.6864573    5.7166449 
H     1.5778586   -2.6955133    4.2283663 
H     1.5759448   -1.2705120    5.2690906 
H     4.0505404   -2.3553102    3.7953785 
H     4.0193101   -0.8985341    4.7683158 
C     3.0626770   -0.7216216    2.8649626 
O     4.2877479   -0.4538471    2.2010295 
C     2.3123599    0.5712594    3.1743954 
H     2.4236968   -1.3470673    2.2211209 
H     2.9358693    1.2215955    3.7923184 
H     1.3791178    0.3768302    3.7068112 
H     2.0635459    1.0981197    2.2522827 
H     4.0956558   -0.0069110    1.3527986 
