12
-265.17014892222
C    -2.0321582   -1.1397910    0.0000000 
C    -1.6375686    0.2639302    0.0000000 
H    -2.6302628   -1.3684960    0.8950704 
H    -1.1227766   -1.7610823    0.0000000 
H    -2.6302628   -1.3684960   -0.8950704 
N    -1.2947185    1.3707691   -0.0000000 
C     2.0321582    1.1397910    0.0000000 
C     1.6375686   -0.2639302    0.0000000 
H     2.6302628    1.3684960    0.8950704 
H     1.1227766    1.7610823    0.0000000 
H     2.6302628    1.3684960   -0.8950704 
N     1.2947185   -1.3707691   -0.0000000 
