12
-265.17014828347
C    -2.0160175    1.1655890   -0.0696271 
C    -1.6326594   -0.2375568   -0.1712008 
H    -2.6961024    1.3152043    0.7826148 
H    -2.5235776    1.4906074   -0.9904820 
H    -1.1067197    1.7690963    0.0783688 
N    -1.2987271   -1.3444244   -0.2484192 
C     2.0161187   -1.1654864    0.0686105 
C     1.6324511    0.2373429    0.1733214 
H     1.1060454   -1.7698438   -0.0709115 
H     2.5327178   -1.4897712    0.9846819 
H     2.6882025   -1.3147134   -0.7900243 
N     1.2982683    1.3439558    0.2530673 
