18
-397.76219948040
C    -2.1211619    2.3330878    0.7834981 
C    -2.3572781    1.0127436    0.2137713 
H    -2.4954758    3.1112613    0.1009288 
H    -2.6419031    2.4264564    1.7487275 
H    -1.0377893    2.4711564    0.9369928 
N    -2.5322080   -0.0386437   -0.2387616 
C     3.1793132    0.4681154    0.4784839 
C     2.0572893    1.3588745    0.7454311 
H     3.7258551    0.2593194    1.4108264 
H     2.7970585   -0.4772246    0.0583086 
H     3.8691728    0.9349847   -0.2410291 
N     1.1575661    2.0575605    0.9531503 
C    -1.0583073   -2.8011469   -1.2628066 
C     0.3003684   -2.3718375   -0.9573028 
H    -1.1537013   -3.0155004   -2.3382245 
H    -1.3030071   -3.7122409   -0.6957016 
H    -1.7611218   -1.9975452   -0.9860887 
N     1.3753305   -2.0194208   -0.7102038 
