30
-662.95123178556
C     0.2249396   -2.4783531    1.7469445 
C     1.6197957   -2.1648503    1.4708419 
H    -0.2474951   -1.6209110    2.2512748 
H     0.1554114   -3.3749954    2.3811662 
H    -0.3052161   -2.6457162    0.7963228 
N     2.7275088   -1.9103749    1.2476919 
C    -0.5475202    0.3231265   -2.6670969 
C    -0.8524986   -0.8614401   -1.8766825 
H    -1.3751371    1.0412971   -2.5627256 
H    -0.4269902    0.0515996   -3.7267500 
H     0.3834679    0.7839408   -2.3001770 
N    -1.1081072   -1.7939532   -1.2378387 
C     4.4917146    0.2635971   -0.3514153 
C     3.2551973    0.9116182   -0.7653086 
H     4.2324609   -0.6070281    0.2741243 
H     5.1112043    0.9654021    0.2273520 
H     5.0581248   -0.0693603   -1.2343675 
N     2.2617791    1.4143992   -1.0851948 
C    -0.4267536    2.6397426    0.6036179 
C    -0.7275832    1.5119666    1.4745559 
H     0.4664910    2.4137804   -0.0003194 
H    -0.2420149    3.5437501    1.2034178 
H    -1.2847280    2.8099415   -0.0645693 
N    -0.9809295    0.6092594    2.1557316 
C    -3.6746199   -0.6878240    0.6232915 
C    -3.4215346    0.4784165   -0.2119911 
H    -3.2418002   -1.5745270    0.1363606 
H    -4.7552979   -0.8297570    0.7724627 
H    -3.1760523   -0.5446841    1.5936790 
N    -3.1938164    1.4019370   -0.8743986 
