30
-662.95094702900
C    -3.6983747    1.2668199    0.4870693 
C    -3.3523885    0.0879580   -0.2952957 
H    -3.2411159    2.1515804    0.0187568 
H    -3.2846399    1.1581410    1.5004604 
H    -4.7906318    1.3888911    0.5378219 
N    -3.0606519   -0.8467451   -0.9152670 
C    -0.0487325    0.2461468   -2.0465728 
C    -0.6234385    1.5051710   -1.5944464 
H     0.3696509    0.3582059   -3.0579337 
H    -0.8326722   -0.5255186   -2.0534328 
H     0.7524547   -0.0646678   -1.3610976 
N    -1.0899930    2.4939980   -1.2093644 
C    -1.0175584   -2.6806450    0.9471395 
C     0.2306735   -2.6804069    0.1980133 
H    -1.8665933   -2.6431487    0.2482715 
H    -1.0591463   -1.7776220    1.5772730 
H    -1.0845609   -3.5824998    1.5740613 
N     1.2218617   -2.6636705   -0.4016982 
C     4.2106513   -1.4327528   -0.7797702 
C     3.5551897   -0.1767836   -0.4409987 
H     4.9543351   -1.6929443   -0.0114137 
H     4.7174371   -1.3481197   -1.7530098 
H     3.4380361   -2.2166482   -0.8263465 
N     3.0080143    0.8090805   -0.1765562 
C     0.7233452    2.5350493    1.5494683 
C    -0.1328795    1.3924365    1.8346252 
H     1.6137814    2.1865791    1.0016334 
H     1.0294824    3.0250098    2.4860707 
H     0.1753473    3.2452760    0.9128677 
N    -0.8168836    0.4818294    2.0496722 
