30
-662.95039836677
C     3.2575363   -1.2857939   -0.6156671 
C     3.8780103    0.0327768   -0.5801275 
H     2.5011508   -1.3528879    0.1828435 
H     2.7605558   -1.4337397   -1.5860471 
H     4.0161186   -2.0704306   -0.4736296 
N     4.3428944    1.0935602   -0.5393054 
C     1.3870489    2.2227309    0.2982040 
C     0.8897164    1.3818179   -0.7808035 
H     2.2829767    2.7664906   -0.0332023 
H     0.5934536    2.9137639    0.6173217 
H     1.6641599    1.5811169    1.1472429 
N     0.4871819    0.7060540   -1.6322554 
C    -2.8774008    1.3737135   -1.4068016 
C    -2.3552840    1.9303949   -0.1666141 
H    -2.0310562    1.1084665   -2.0588292 
H    -3.4483670    0.4607005   -1.1826130 
H    -3.5228140    2.1058059   -1.9149136 
N    -1.9245446    2.3627809    0.8186178 
C    -1.5009700   -0.2364802    2.8120646 
C    -0.2597283   -0.6496310    2.1734351 
H    -2.3407418   -0.7528439    2.3223334 
H    -1.4808431   -0.4819171    3.8843342 
H    -1.6380260    0.8466499    2.6721157 
N     0.7223766   -0.9734094    1.6506853 
C    -0.4851121   -2.4260774   -1.1580395 
C    -1.7185937   -2.0075823   -0.5072481 
H    -0.6919061   -3.2027152   -1.9095480 
H    -0.0268612   -1.5465870   -1.6378535 
H     0.2130464   -2.8159761   -0.4033277 
N    -2.6939781   -1.6507517    0.0076283 
