36
-795.54791538790
C    -0.1477145    1.2369586   -1.9412766 
C    -0.0726824    1.4949319   -0.5114146 
H     0.7526661    1.6322883   -2.4330784 
H    -1.0594980    1.6984746   -2.3472467 
H    -0.1836733    0.1496391   -2.1033821 
N    -0.0180169    1.6967383    0.6291709 
C     3.0630176   -2.1712271   -1.3764434 
C     1.6081586   -2.1399898   -1.3430067 
H     3.4282675   -1.2528968   -1.8604603 
H     3.4144033   -3.0577307   -1.9251223 
H     3.4412205   -2.1900031   -0.3429557 
N     0.4504490   -2.1010424   -1.3123268 
C    -3.2542165    2.1423019    1.4212311 
C    -3.3174808    1.9444591   -0.0205632 
H    -3.4638285    1.1831245    1.9190417 
H    -3.9850117    2.9001496    1.7405087 
H    -2.2371549    2.4629284    1.6926559 
N    -3.3467313    1.7662306   -1.1655883 
C    -2.9344224   -1.6053709   -1.3010975 
C    -3.0810730   -1.3771137    0.1300966 
H    -3.1707078   -0.6720970   -1.8349470 
H    -3.6170146   -2.4017407   -1.6339056 
H    -1.8938610   -1.8992130   -1.5118839 
N    -3.1735307   -1.1781095    1.2684959 
C     0.0260022   -1.3745230    2.0811707 
C     1.4767731   -1.3720159    1.9606520 
H    -0.3532017   -0.3496458    1.9599953 
H    -0.2863018   -1.7703427    3.0584251 
H    -0.4078924   -1.9930733    1.2838574 
N     2.6301584   -1.3615495    1.8424208 
C     3.3209524    1.7905274    1.1398794 
C     3.2408522    1.4234447   -0.2670709 
H     2.3222963    2.1047975    1.4798548 
H     4.0411556    2.6098060    1.2835839 
H     3.6261279    0.9096927    1.7241101 
N     3.1615137    1.1211919   -1.3833805 
