15
-233.36310601213
C    -0.0115405   -0.5074680   -1.7452006 
C    -0.1947368    0.6270905   -0.7377371 
H     0.1340175   -0.1140236   -2.7635618 
H    -0.8964767   -1.1658826   -1.7677786 
H     0.8627585   -1.1342497   -1.5072903 
H    -1.0162083    1.2893253   -1.0584458 
H     0.7171343    1.2553634   -0.7113250 
C    -0.5130832    0.1781422    0.6940635 
O    -0.8607914    1.2942128    1.5014184 
C     0.6059328   -0.6361411    1.3416936 
H    -1.4278741   -0.4411367    0.6653488 
H     1.5474953   -0.0576952    1.3561434 
H     0.7994401   -1.5760663    0.8016047 
H     0.3391550   -0.8819232    2.3806721 
H    -0.0852225    1.8704523    1.5503947 
