15
-233.36270383854
C     1.0705808    1.1056169   -0.6835636 
C    -0.3278582    0.5227037   -0.8935293 
H     1.3799630    1.7128224   -1.5484725 
H     1.8332720    0.3226976   -0.5423864 
H     1.0959705    1.7674647    0.1986715 
H    -0.3324324   -0.1305197   -1.7841572 
H    -1.0351290    1.3432636   -1.1007173 
C    -0.8821546   -0.2707415    0.3024708 
O    -1.0261695    0.5525681    1.4521999 
C    -0.0847954   -1.5342680    0.6260214 
H    -1.9128452   -0.5717002    0.0472442 
H     0.9496643   -1.2903719    0.9234960 
H    -0.0308900   -2.2102724   -0.2426604 
H    -0.5558969   -2.0743771    1.4612825 
H    -0.1412793    0.7551136    1.7841006 
