15
-233.36404475413
C    -1.8844791    0.7074278   -0.2313201 
C    -0.3666547    0.8262795   -0.1102921 
H    -2.3656160    1.6983335   -0.2378231 
H    -2.2908165    0.1290430    0.6113377 
H    -2.1702684    0.1892874   -1.1626557 
H    -0.1036174    1.3837272    0.8064754 
H     0.0432437    1.4007796   -0.9590044 
C     0.3445307   -0.5239871   -0.0557407 
O    -0.1573407   -1.2127716    1.0827550 
C     1.8631690   -0.3808512    0.0168023 
H     0.0847721   -1.0846294   -0.9805880 
H     2.1497350    0.1805747    0.9207396 
H     2.2593124    0.1475691   -0.8654821 
H     2.3513559   -1.3695716    0.0600058 
H     0.2426739   -2.0912109    1.1047902 
