15
-233.36374612808
C    -1.5714290    0.6995983   -0.8992560 
C    -0.0779541    0.5996213   -0.5910111 
H    -1.7863286    1.5264795   -1.5939828 
H    -2.1574935    0.8901727    0.0158728 
H    -1.9518067   -0.2289818   -1.3590545 
H     0.2739162    1.5404095   -0.1318227 
H     0.4874926    0.4728950   -1.5309553 
C     0.2820707   -0.5558463    0.3518818 
O    -0.3743236   -0.4337773    1.6068089 
C     1.7735994   -0.6183188    0.6433969 
H    -0.0211901   -1.5063191   -0.1403907 
H     2.1015687    0.3124542    1.1339677 
H     2.3524486   -0.7492085   -0.2840270 
H     1.9955126   -1.4568480    1.3204748 
H    -1.3260832   -0.4923308    1.4580971 
