30
-466.74756731330
C    -0.9863740   -2.4028373    0.3646307 
C    -2.1859973   -1.4779452    0.5658471 
H    -1.2191955   -3.4298711    0.6865522 
H    -0.1034242   -2.0585080    0.9222479 
H    -0.6993537   -2.4433286   -0.6989175 
H    -2.5420137   -1.5291183    1.6134114 
H    -3.0333846   -1.8207732   -0.0534129 
C    -1.9103986   -0.0095866    0.2318932 
O    -0.9303003    0.5513292    1.1150857 
C    -3.1698371    0.8493434    0.2362284 
H    -1.4363598    0.0473520   -0.7628667 
H    -3.6727910    0.8003394    1.2183135 
H    -3.8887684    0.5046961   -0.5235141 
H    -2.9184605    1.9005021    0.0297966 
H    -1.2856135    0.5391884    2.0158925 
C     1.8487251   -0.6152648   -1.9925595 
C     1.7913211    0.7353963   -1.2834676 
H     1.3689019   -0.5768706   -2.9839599 
H     1.3450334   -1.3844527   -1.3892149 
H     2.8919254   -0.9433832   -2.1366570 
H     0.7436325    1.0837580   -1.2142521 
H     2.3276383    1.4998421   -1.8736405 
C     2.3778358    0.7012359    0.1360567 
O     1.7354671   -0.2657410    0.9462308 
C     2.3411993    2.0788204    0.7997085 
H     3.4309276    0.3705918    0.0616497 
H     1.2977897    2.4264985    0.8885112 
H     2.9046959    2.8276777    0.2192098 
H     2.7708230    2.0238145    1.8119182 
H     0.8063561    0.0172948    1.0492785 
