30
-466.74652291812
C    -0.4689158   -2.1612837   -1.8843175 
C    -1.6826033   -1.3627668   -1.4099739 
H    -0.5682364   -3.2222888   -1.6055649 
H     0.4633225   -1.7838198   -1.4409068 
H    -0.3678813   -2.1139055   -2.9819306 
H    -1.7697413   -1.4185110   -0.3103789 
H    -2.6080925   -1.8051297   -1.8172920 
C    -1.6681261    0.1099526   -1.8103772 
O    -0.5347913    0.7265252   -1.1840937 
C    -2.9456153    0.8396854   -1.4094342 
H    -1.5455933    0.1691813   -2.9113968 
H    -3.0922051    0.7828065   -0.3189563 
H    -3.8248766    0.3983962   -1.9047333 
H    -2.9019692    1.9044623   -1.6949788 
H    -0.4809401    1.6488155   -1.4680621 
C     1.9873115    1.7299610    2.8734837 
C     1.8213796    1.4185576    1.3866935 
H     1.9642231    2.8158464    3.0588209 
H     2.9504441    1.3498645    3.2549642 
H     1.1884333    1.2765279    3.4820020 
H     2.5768110    1.9680952    0.7997172 
H     0.8335872    1.7699447    1.0341381 
C     1.9572755   -0.0653879    1.0113549 
O     1.9936086   -0.2168844   -0.3963235 
C     0.8706828   -0.9397315    1.6407822 
H     2.9418835   -0.4190575    1.3703800 
H    -0.1271356   -0.5890145    1.3294595 
H     0.9135694   -0.9200231    2.7412785 
H     0.9868691   -1.9838360    1.3117986 
H     1.1373219    0.0930176   -0.7461528 
