30
-466.74626024919
C    -0.4901224    0.0326017   -2.4382337 
C    -1.9294375   -0.4188233   -2.1918296 
H    -0.1878013   -0.1560765   -3.4803015 
H     0.2182145   -0.4797161   -1.7713012 
H    -0.3860983    1.1152096   -2.2529523 
H    -2.0615703   -1.4747433   -2.4987042 
H    -2.6223144    0.1641218   -2.8238038 
C    -2.3843343   -0.2910569   -0.7351849 
O    -1.6578427   -1.1810882    0.1235843 
C    -3.8834236   -0.5074044   -0.5580837 
H    -2.1182172    0.7141816   -0.3661176 
H    -4.1821440   -1.5009754   -0.9371473 
H    -4.4626539    0.2476120   -1.1124280 
H    -4.1571710   -0.4478782    0.5060535 
H    -1.8739669   -2.0898176   -0.1325885 
C     3.7736142    0.8792849    2.1365789 
C     3.0698015    0.0428795    1.0701333 
H     4.8581491    0.9278660    1.9500317 
H     3.6298639    0.4500656    3.1429656 
H     3.4001494    1.9159975    2.1632286 
H     3.5250211   -0.9601877    1.0144145 
H     3.2034677    0.4959403    0.0714285 
C     1.5725264   -0.1629861    1.3020941 
O     1.1356605   -1.1071667    0.3430594 
C     0.7610017    1.1302064    1.2171957 
H     1.4447303   -0.5792033    2.3269753 
H     0.8817244    1.5945701    0.2243425 
H     1.0726783    1.8578537    1.9829251 
H    -0.3096921    0.9212001    1.3729594 
H     0.1601867   -1.1324669    0.3507058 
