30
-466.74606069884
C    -1.3022205   -2.8899490   -0.9499880 
C    -0.6789261   -1.5630105   -1.3844066 
H    -1.3889468   -2.9378127    0.1461042 
H    -2.3079608   -3.0372821   -1.3759709 
H    -0.6788588   -3.7365337   -1.2772330 
H    -0.6403932   -1.4957953   -2.4853984 
H     0.3620163   -1.5104003   -1.0268286 
C    -1.3970830   -0.3154097   -0.8652251 
O    -1.3046457   -0.3445419    0.5685550 
C    -2.8535377   -0.1962408   -1.3008334 
H    -0.8434444    0.5670870   -1.2409475 
H    -3.4541594   -1.0302603   -0.9074175 
H    -2.9333611   -0.1951685   -2.3996371 
H    -3.2973056    0.7461084   -0.9360999 
H    -1.7925724    0.4072814    0.9301370 
C     2.0079137    1.6117619   -0.9488160 
C     1.5002254    1.8397626    0.4729013 
H     1.6561600    2.3976211   -1.6365717 
H     1.6686242    0.6383755   -1.3330787 
H     3.1104308    1.6081762   -0.9789125 
H     0.3958906    1.9046848    0.4737438 
H     1.8635685    2.8107758    0.8537531 
C     1.9121534    0.7339677    1.4568134 
O     1.4607238   -0.5397204    1.0403323 
C     1.4524510    1.0399669    2.8831660 
H     3.0164569    0.6701223    1.4521733 
H     0.3526709    1.1328160    2.9220896 
H     1.8841194    1.9820031    3.2591454 
H     1.7459885    0.2227396    3.5592889 
H     0.4840221   -0.5211251    1.0291616 
