30
-466.74574671791
C    -3.1382443   -2.4005210   -1.4253383 
C    -2.5031903   -1.5843541   -0.3004233 
H    -4.2363753   -2.3939889   -1.3462492 
H    -2.8087834   -3.4528857   -1.3933541 
H    -2.8768301   -1.9998650   -2.4172380 
H    -2.8791974   -1.9538069    0.6723547 
H    -2.8089505   -0.5255751   -0.3677597 
C    -0.9733741   -1.6351247   -0.2670632 
O    -0.4868207   -0.9039547    0.8663144 
C    -0.3053831   -1.0305306   -1.4919529 
H    -0.6567862   -2.6949179   -0.1775543 
H    -0.6450587    0.0067843   -1.6428901 
H    -0.5425543   -1.6117384   -2.3949864 
H     0.7859122   -1.0142820   -1.3605131 
H    -0.8621431   -1.2828062    1.6726539 
C     1.6044433    2.3281776   -1.1214672 
C     1.1973798    2.2029195    0.3447903 
H     0.8705917    2.9132733   -1.6992297 
H     1.6948293    1.3344454   -1.5841226 
H     2.5834205    2.8271169   -1.2204498 
H     0.1806283    1.7769742    0.4230342 
H     1.1542578    3.2034130    0.8114639 
C     2.1415446    1.3100662    1.1637173 
O     2.1750140   -0.0149094    0.6644578 
C     1.7901357    1.3252544    2.6526448 
H     3.1715310    1.6955716    1.0436304 
H     0.7521285    0.9815927    2.8045011 
H     1.8755400    2.3369560    3.0819061 
H     2.4600610    0.6505660    3.2076720 
H     1.2862738   -0.3938507    0.8014512 
