30
-466.74551259352
C    -3.6562918   -1.1296985    0.3172382 
C    -2.9188232   -1.2391821   -1.0177905 
H    -4.6729397   -1.5466505    0.2483202 
H    -3.7693896   -0.0800283    0.6403325 
H    -3.1256544   -1.6745867    1.1165853 
H    -3.4625025   -0.6794849   -1.7989521 
H    -2.8975512   -2.2942850   -1.3406094 
C    -1.4761246   -0.7304300   -0.9781718 
O    -1.4334525    0.6641878   -0.6379460 
C    -0.7545178   -0.8807244   -2.3074098 
H    -0.9222276   -1.3024053   -0.2052273 
H    -1.2882872   -0.3251279   -3.0953447 
H    -0.7028601   -1.9409794   -2.5989463 
H     0.2656871   -0.4786803   -2.2283386 
H    -1.8859676    0.7937772    0.2058488 
C     2.1165780    0.2248415    2.5857763 
C     1.5182670    0.2214881    1.1798886 
H     1.7070456   -0.5958350    3.1962134 
H     1.8979359    1.1701821    3.1115425 
H     3.2112398    0.1039587    2.5654897 
H     0.4166297    0.2337518    1.2503366 
H     1.7816932   -0.7115848    0.6499028 
C     1.9367329    1.4066596    0.2956585 
O     1.2753994    1.3705120   -0.9525677 
C     3.4310823    1.4405061    0.0043485 
H     1.6713115    2.3405163    0.8420146 
H     3.7416761    0.5040690   -0.4881561 
H     4.0248503    1.5715671    0.9215370 
H     3.6559515    2.2737550   -0.6783823 
H     0.3145094    1.2899109   -0.8031909 
