30
-466.74480084458
C    -1.5451552   -1.7274085   -2.5277920 
C    -1.0780511   -0.3365585   -2.0973728 
H    -1.6347097   -2.3935249   -1.6563314 
H    -2.5221623   -1.7018544   -3.0372569 
H    -0.8219292   -2.1795207   -3.2241353 
H    -1.0339155    0.3426108   -2.9663922 
H    -0.0574427   -0.4040670   -1.6887877 
C    -1.9454509    0.3302334   -1.0273399 
O    -1.8650082   -0.4887072    0.1510808 
C    -3.4016855    0.5369881   -1.4296569 
H    -1.4965460    1.3184902   -0.8046930 
H    -3.9018794   -0.4257612   -1.6143371 
H    -3.4707894    1.1480283   -2.3437081 
H    -3.9585749    1.0647604   -0.6362341 
H    -2.4568746   -0.1294501    0.8250504 
C     3.7107062    0.5220601    2.4585300 
C     2.9330346   -0.2168856    1.3717136 
H     4.7943287    0.3556953    2.3518727 
H     3.4206197    0.1762799    3.4655240 
H     3.5423023    1.6106866    2.4215407 
H     3.1924165   -1.2887009    1.3818511 
H     3.2147668    0.1567642    0.3709619 
C     1.4118328   -0.1290967    1.4973392 
O     0.8726697   -0.9990088    0.5226845 
C     0.8727013    1.2934766    1.3330341 
H     1.1382119   -0.4826038    2.5175827 
H     1.1584772    1.6988490    0.3479181 
H     1.2542489    1.9703205    2.1136279 
H    -0.2269228    1.2945052    1.3961626 
H    -0.0992193   -0.9166002    0.5275631 
