45
-700.13838373000
C    -2.0004149   -2.0304462   -0.5040008 
C    -2.7156504   -1.0953049   -1.4782635 
H    -2.3582238   -3.0665758   -0.6099850 
H    -2.1723637   -1.7186073    0.5375501 
H    -0.9142518   -2.0148958   -0.6803413 
H    -3.8134389   -1.1439890   -1.3310871 
H    -2.5374179   -1.4269124   -2.5158267 
C    -2.2722890    0.3642889   -1.3685740 
O    -2.5165037    0.8811990   -0.0449135 
C    -2.9230285    1.2693554   -2.4061609 
H    -1.1767066    0.4009874   -1.4725164 
H    -4.0241046    1.2421026   -2.3212006 
H    -2.6585281    0.9503535   -3.4266756 
H    -2.5922616    2.3100349   -2.2696335 
H    -3.4594960    0.7953464    0.1548198 
C     1.1846686   -2.0024737    2.3418769 
C     0.7176167   -0.8340397    3.2098048 
H     2.1160230   -2.4401382    2.7350573 
H     1.3682195   -1.6904709    1.3035665 
H     0.4253951   -2.8025198    2.3158209 
H     1.4959981   -0.0508205    3.2495565 
H     0.5650417   -1.1760322    4.2481262 
C    -0.5763598   -0.1786273    2.7310462 
O    -0.3241358    0.4363149    1.4729469 
C    -1.1106223    0.8547408    3.7199554 
H    -1.3379031   -0.9768057    2.6029057 
H    -0.3660291    1.6520427    3.8756386 
H    -1.3422240    0.3944340    4.6940851 
H    -2.0325231    1.3217858    3.3363874 
H    -1.1746159    0.6867918    1.0487665 
C     4.0994574    0.6693364   -2.5779231 
C     2.7457877    0.0241617   -2.2888049 
H     4.5190541    0.3015457   -3.5277440 
H     4.8302881    0.4416959   -1.7830835 
H     4.0260563    1.7662227   -2.6548774 
H     2.8385633   -1.0748313   -2.3060305 
H     2.0181766    0.2834741   -3.0790247 
C     2.1334303    0.4018397   -0.9403914 
O     0.9694317   -0.3919785   -0.7798629 
C     1.7997319    1.8886499   -0.8116678 
H     2.8703653    0.1436021   -0.1480209 
H     1.1265283    2.2021125   -1.6279282 
H     2.7051108    2.5150910   -0.8487954 
H     1.2904289    2.0771966    0.1461100 
H     0.5537191   -0.1592373    0.0793129 
