45
-700.14230343896
C    -3.5584999    0.0564827    1.1091204 
C    -3.2575848   -1.4161188    0.8312757 
H    -4.5813732    0.1880076    1.4958037 
H    -3.4692864    0.6568322    0.1909890 
H    -2.8589662    0.4780761    1.8501730 
H    -3.9155998   -1.7889828    0.0262194 
H    -3.4779949   -2.0237941    1.7257920 
C    -1.8093790   -1.6834153    0.4275659 
O    -1.5190501   -0.8839132   -0.7174669 
C    -1.5429283   -3.1566286    0.1362597 
H    -1.1556005   -1.3646988    1.2678195 
H    -2.1700884   -3.4983295   -0.7027131 
H    -1.7624594   -3.7812282    1.0170571 
H    -0.4875927   -3.3168782   -0.1376775 
H    -0.5657932   -0.9921903   -0.9398132 
C     3.4231608   -3.1401384    0.5056000 
C     2.6124692   -2.2911829   -0.4711019 
H     3.7715307   -4.0684795    0.0265896 
H     2.8201690   -3.4263988    1.3842016 
H     4.3142703   -2.6075054    0.8745968 
H     1.7812264   -2.8880099   -0.8843552 
H     3.2310439   -1.9921635   -1.3354614 
C     2.0078250   -1.0275785    0.1385425 
O     1.1612402   -0.4532400   -0.8521759 
C     3.0447789   -0.0066294    0.5982876 
H     1.3994034   -1.3272857    1.0195152 
H     3.6811852    0.2969852   -0.2490628 
H     3.6883150   -0.4116865    1.3944698 
H     2.5458049    0.8921950    0.9955397 
H     0.7997673    0.3965087   -0.5074463 
C     0.2926689    4.1795934    0.8516945 
C     0.3003373    3.6784668   -0.5910626 
H     1.0716627    4.9407196    1.0170498 
H     0.4659315    3.3481530    1.5509587 
H    -0.6796936    4.6324988    1.1094281 
H     1.2946316    3.2671084   -0.8444244 
H     0.1220657    4.5152993   -1.2882365 
C    -0.7419138    2.5973968   -0.8646508 
O    -0.4771862    1.5096333    0.0220921 
C    -0.7399851    2.1248706   -2.3167236 
H    -1.7429613    3.0115438   -0.6231261 
H     0.2464538    1.7129294   -2.5863586 
H    -0.9712733    2.9552144   -3.0029204 
H    -1.4896351    1.3322967   -2.4695262 
H    -1.1010965    0.7756644   -0.1823379 
