45
-700.14204695715
C    -4.4125757   -2.7775581    0.0988634 
C    -3.3539713   -1.7739200   -0.3536092 
H    -5.4164598   -2.4674657   -0.2310513 
H    -4.4376880   -2.8664598    1.1982834 
H    -4.2292784   -3.7836621   -0.3111552 
H    -3.6227885   -0.7631700   -0.0015390 
H    -3.3191187   -1.7172617   -1.4561497 
C    -1.9421944   -2.0707941    0.1493668 
O    -1.1230601   -0.9758280   -0.2472859 
C    -1.3612404   -3.3787128   -0.3804988 
H    -1.9727195   -2.1235495    1.2582512 
H    -1.3466639   -3.3722660   -1.4828820 
H    -1.9459456   -4.2480568   -0.0419788 
H    -0.3274954   -3.5115790   -0.0222089 
H    -0.1922381   -1.1464130    0.0297726 
C     1.8841533   -0.7638484   -2.1316068 
C     2.7400667   -0.0766375   -1.0690492 
H     1.9764074   -0.2576863   -3.1056841 
H     0.8202152   -0.7659339   -1.8541943 
H     2.1942158   -1.8135637   -2.2702835 
H     2.4394718    0.9820978   -0.9653622 
H     3.7966907   -0.0603784   -1.3894469 
C     2.6703333   -0.7344541    0.3142447 
O     1.3400387   -0.7788159    0.8195494 
C     3.5908265   -0.0548576    1.3249263 
H     2.9724101   -1.7924155    0.2103903 
H     3.3155424    1.0075373    1.4433236 
H     4.6433728   -0.0975952    1.0022237 
H     3.5035977   -0.5412734    2.3081103 
H     1.0048351    0.1364851    0.9607587 
C     0.6764379    3.7804103    2.0898090 
C     0.6385314    3.4745975    0.5939567 
H     1.5187490    4.4438957    2.3426536 
H     0.7781139    2.8535883    2.6737526 
H    -0.2526236    4.2774791    2.4163188 
H     1.5927253    3.0140590    0.2777933 
H     0.5374506    4.4087110    0.0146941 
C    -0.4973934    2.5364856    0.1912812 
O    -0.3530059    1.3338312    0.9401811 
C    -0.5281784    2.2576923   -1.3092609 
H    -1.4562338    3.0174612    0.4794491 
H     0.4292284    1.8320522   -1.6477722 
H    -0.7140660    3.1843126   -1.8755313 
H    -1.3203852    1.5343209   -1.5571495 
H    -0.9380898    0.6391395    0.5657458 
