45
-700.14071650017
C    -4.0991840   -2.4001007    2.3422077 
C    -3.4541013   -1.5514930    1.2483596 
H    -5.1278165   -2.0640920    2.5466663 
H    -3.5345350   -2.3329707    3.2877064 
H    -4.1517503   -3.4643833    2.0620258 
H    -3.5053772   -0.4842741    1.5244286 
H    -4.0116414   -1.6510334    0.3001257 
C    -1.9884209   -1.8810341    0.9720401 
O    -1.5175104   -0.9173064    0.0325902 
C    -1.7621072   -3.2903131    0.4322302 
H    -1.4217950   -1.7749537    1.9210463 
H    -2.3271608   -3.4363294   -0.5030812 
H    -2.0757646   -4.0577417    1.1567109 
H    -0.6923636   -3.4480018    0.2197101 
H    -0.5729417   -1.1158203   -0.1632580 
C     3.6257871    0.8267610    0.3482358 
C     3.5630734   -0.5947551   -0.2088026 
H     4.5934676    1.0225825    0.8361204 
H     2.8368207    1.0047680    1.0962499 
H     3.4997718    1.5747004   -0.4529813 
H     3.7220685   -1.3266345    0.6028244 
H     4.3789170   -0.7459033   -0.9376005 
C     2.2346325   -0.9335407   -0.8925307 
O     1.1578141   -0.8610089    0.0336273 
C     2.2250007   -2.3350799   -1.4846227 
H     2.0687852   -0.2015189   -1.7112310 
H     2.3758968   -3.0829926   -0.6891313 
H     3.0248354   -2.4549683   -2.2315164 
H     1.2596082   -2.5424107   -1.9719162 
H     0.9790123    0.0690184    0.3022209 
C     0.3515607    4.7478367   -0.8682450 
C     0.5780474    3.4820441   -0.0440655 
H     1.1062505    5.5136709   -0.6299245 
H    -0.6405974    5.1861058   -0.6662473 
H     0.4132042    4.5523987   -1.9509093 
H     0.6006637    3.7280295    1.0307099 
H     1.5633429    3.0428013   -0.2794529 
C    -0.4850963    2.4025141   -0.2362409 
O    -0.2088894    1.3731889    0.7119730 
C    -0.5430421    1.8363577   -1.6546622 
H    -1.4729420    2.8484503    0.0027126 
H     0.4449791    1.4511093   -1.9579794 
H    -0.8492217    2.6039336   -2.3821095 
H    -1.2655169    1.0074140   -1.7065303 
H    -0.8957642    0.6749752    0.6125166 
