45
-700.14160080066
C    -2.2542257   -2.9952305   -2.7095553 
C    -1.5406802   -2.1213017   -1.6793823 
H    -1.8281989   -2.8473234   -3.7143462 
H    -3.3289161   -2.7508747   -2.7665423 
H    -2.1699539   -4.0678801   -2.4723622 
H    -1.5529083   -1.0682321   -2.0060285 
H    -0.4741933   -2.4034789   -1.6108142 
C    -2.1444082   -2.1758117   -0.2695968 
O    -1.5244338   -1.2041757    0.5749916 
C    -2.0638745   -3.5547475    0.3798260 
H    -3.2056671   -1.8731377   -0.3293808 
H    -1.0162419   -3.8994777    0.4222384 
H    -2.6462330   -4.3036635   -0.1790536 
H    -2.4535494   -3.5097525    1.4080763 
H    -0.5503454   -1.3591876    0.5651889 
C     4.3007178    0.2530739    2.0095173 
C     3.2728621    0.0444429    0.8981264 
H     5.2541661    0.6240739    1.6017635 
H     4.5125461   -0.6905297    2.5407796 
H     3.9571059    0.9853055    2.7576630 
H     3.6876749   -0.6142197    0.1170470 
H     3.0488216    1.0075402    0.4046364 
C     1.9512356   -0.5800677    1.3580361 
O     1.1469460   -0.9028332    0.2245422 
C     1.1745645    0.2865867    2.3485624 
H     2.1747450   -1.5512640    1.8354330 
H     0.9840506    1.2860411    1.9236967 
H     1.7293931    0.4190856    3.2899705 
H     0.2030912   -0.1745675    2.5845607 
H     0.8165983   -0.0702046   -0.1812182 
C     1.3074820    3.1966887   -0.9296673 
C    -0.2082491    3.3339054   -1.0598367 
H     1.8315184    3.9635454   -1.5217753 
H     1.6427577    2.2101725   -1.2831487 
H     1.6307389    3.3066566    0.1196010 
H    -0.5064849    3.2128653   -2.1164947 
H    -0.5245561    4.3464786   -0.7549644 
C    -0.9912872    2.3203949   -0.2285348 
O    -0.6041001    1.0172439   -0.6431490 
C    -2.5012286    2.4935494   -0.3638634 
H    -0.7163152    2.4654265    0.8388365 
H    -2.8078532    2.3672784   -1.4150288 
H    -2.8187192    3.4925794   -0.0243408 
H    -3.0338340    1.7434994    0.2433606 
H    -1.1605584    0.3415274   -0.1873700 
