60
-933.54195687309
C    -1.6653222   -1.4936278   -3.7093365 
C    -1.0271509   -1.2856218   -2.3371005 
H    -1.2093695   -0.8295022   -4.4603195 
H    -2.7463729   -1.2728163   -3.6847951 
H    -1.5460751   -2.5279543   -4.0697916 
H    -1.0883145   -0.2217363   -2.0595389 
H     0.0496087   -1.5282172   -2.3718142 
C    -1.6699384   -2.0984119   -1.2061549 
O    -1.1614989   -1.6820940    0.0601551 
C    -1.4924469   -3.6065957   -1.3610816 
H    -2.7520122   -1.8701784   -1.1804854 
H    -0.4199501   -3.8606429   -1.4071372 
H    -1.9745568   -3.9832430   -2.2766698 
H    -1.9325694   -4.1275924   -0.4973843 
H    -0.1691485   -1.6792249    0.0126339 
C    -2.1984899    2.4070771   -1.5408261 
C    -3.1148781    1.5700247   -0.6495337 
H    -2.5644901    2.4303890   -2.5794511 
H    -1.1724291    2.0110705   -1.5514996 
H    -2.1429755    3.4487664   -1.1820289 
H    -3.2204622    0.5503988   -1.0626451 
H    -4.1309376    2.0023016   -0.6453709 
C    -2.6349115    1.4546329    0.8026687 
O    -1.3470862    0.8532120    0.8878399 
C    -3.6207000    0.6925606    1.6840582 
H    -2.5079442    2.4761921    1.2060724 
H    -3.7545666   -0.3357390    1.3078671 
H    -4.6070097    1.1829656    1.7008704 
H    -3.2406593    0.6296985    2.7148945 
H    -1.4028644   -0.1015782    0.6124259 
C     1.9622284   -1.1038655    3.7439569 
C     1.2726457   -1.0292191    2.3828267 
H     1.3419546   -0.6397691    4.5267313 
H     2.9308634   -0.5752013    3.7312912 
H     2.1567638   -2.1435576    4.0525173 
H     1.0086043    0.0173921    2.1598610 
H     0.3147322   -1.5779455    2.4046934 
C     2.1161324   -1.5668460    1.2179773 
O     1.4832905   -1.2954171   -0.0330792 
C     2.3483332   -3.0695648    1.2793882 
H     3.0987174   -1.0544383    1.2338163 
H     1.3832116   -3.6031824    1.2739527 
H     2.8981860   -3.3560770    2.1881839 
H     2.9279765   -3.3983893    0.4036630 
H     1.4063408   -0.3141107   -0.1561716 
C     3.9082079    1.2710925   -0.5882011 
C     3.0295536    2.5207923   -0.5536075 
H     4.8016310    1.4297845   -1.2124747 
H     3.3625199    0.4068270   -0.9953402 
H     4.2543282    1.0020180    0.4243401 
H     2.7186869    2.7935506   -1.5776638 
H     3.6070911    3.3747516   -0.1590775 
C     1.7660448    2.3689285    0.2906810 
O     0.9749649    1.3328789   -0.2830393 
C     0.9637314    3.6634203    0.3832197 
H     2.0681941    2.0704683    1.3180557 
H     0.6615594    4.0024989   -0.6207479 
H     1.5572001    4.4606446    0.8584840 
H     0.0528203    3.5128897    0.9842057 
H     0.0890076    1.2951326    0.1650361 
