60
-933.54186674850
C    -0.6642821   -2.9619924   -1.9375069 
C     0.4794250   -3.2425100   -0.9633862 
H    -0.3411175   -3.1054684   -2.9807807 
H    -1.0395578   -1.9336558   -1.8363712 
H    -1.5145073   -3.6417712   -1.7552818 
H     1.3381795   -2.5876506   -1.1937454 
H     0.8321854   -4.2813808   -1.0891222 
C     0.1129604   -3.0343340    0.5110786 
O    -0.1742428   -1.6631498    0.7901798 
C     1.1953778   -3.5425792    1.4600524 
H    -0.8271520   -3.5757720    0.7227916 
H     2.1583549   -3.0493324    1.2491418 
H     1.3402036   -4.6296136    1.3535232 
H     0.9190910   -3.3253180    2.5030057 
H     0.5976103   -1.1076618    0.5108051 
C    -3.9899531    1.8289731   -1.1537742 
C    -4.3303777    0.3758180   -0.8264242 
H    -4.7314481    2.2672276   -1.8402781 
H    -3.0023120    1.9068617   -1.6324451 
H    -3.9736741    2.4493989   -0.2412943 
H    -4.3369431   -0.2260793   -1.7525350 
H    -5.3465190    0.3129780   -0.3996093 
C    -3.3614323   -0.2783324    0.1564367 
O    -2.0536754   -0.2088321   -0.3988150 
C    -3.7296300   -1.7254733    0.4684629 
H    -3.3838667    0.3014938    1.1036286 
H    -3.7228172   -2.3314116   -0.4520540 
H    -4.7319096   -1.7875496    0.9211914 
H    -3.0078141   -2.1640230    1.1756737 
H    -1.4375559   -0.8225966    0.0822376 
C     5.1694117   -0.0587140    0.8842881 
C     3.7540097   -0.5085407    0.5276418 
H     5.7145845   -0.8557032    1.4137416 
H     5.1548008    0.8266559    1.5424693 
H     5.7568127    0.2024104   -0.0102927 
H     3.2321347   -0.8524062    1.4366606 
H     3.7880810   -1.3741299   -0.1581261 
C     2.8858881    0.5735874   -0.1129468 
O     1.5854659    0.0288509   -0.2800542 
C     3.4137253    1.0773429   -1.4541953 
H     2.8402058    1.4315799    0.5911038 
H     3.5152417    0.2386783   -2.1623165 
H     4.3922761    1.5712466   -1.3487382 
H     2.7114435    1.8060263   -1.8892342 
H     0.9535423    0.7353482   -0.5771396 
C    -0.7678279    1.6657342    2.1746152 
C     0.0046201    2.7361425    1.4059475 
H    -0.4479315    1.6304987    3.2280715 
H    -0.6116573    0.6642410    1.7520358 
H    -1.8514525    1.8722064    2.1638503 
H     1.0800526    2.4849723    1.3918012 
H    -0.0774485    3.7029807    1.9334853 
C    -0.4620722    2.9567126   -0.0390353 
O    -0.3457926    1.7808043   -0.8361252 
C     0.3339757    4.0548697   -0.7319713 
H    -1.5287398    3.2541226   -0.0135899 
H     1.4025166    3.7850336   -0.7722191 
H     0.2426067    5.0121047   -0.1955947 
H    -0.0218864    4.1913629   -1.7640318 
H    -1.0891869    1.1497177   -0.6548861 
