60
-933.53840563482
C    -4.3482067   -1.4543185    1.6547222 
C    -3.0432046   -0.8834477    1.1013810 
H    -5.1642047   -1.3601264    0.9210692 
H    -4.6611112   -0.9209851    2.5685623 
H    -4.2567086   -2.5223343    1.9086550 
H    -3.2056092    0.1525093    0.7600225 
H    -2.7281845   -1.4544731    0.2094401 
C    -1.8781669   -0.8600225    2.1002072 
O    -0.7694953   -0.1560749    1.5544109 
C    -1.4370834   -2.2474865    2.5598645 
H    -2.1945824   -0.2751485    2.9830830 
H    -1.1096813   -2.8517939    1.6971474 
H    -2.2499635   -2.7866246    3.0699538 
H    -0.5891477   -2.1618595    3.2560253 
H    -0.3585278   -0.6818165    0.8204454 
C    -3.2277987    2.7467857   -1.5837633 
C    -2.2319568    2.8435577   -0.4292789 
H    -4.2094871    3.1560279   -1.2978497 
H    -3.3817098    1.6974610   -1.8888181 
H    -2.8863218    3.3031615   -2.4712824 
H    -2.6514702    2.3416369    0.4597643 
H    -2.0690942    3.8958439   -0.1375421 
C    -0.8680988    2.2060645   -0.7154130 
O    -0.0891653    2.1710333    0.4787267 
C    -0.0578377    2.9433642   -1.7718591 
H    -1.0405029    1.1662454   -1.0608366 
H     0.1494940    3.9731326   -1.4382308 
H    -0.5954969    2.9885199   -2.7307665 
H     0.9048355    2.4384078   -1.9441954 
H    -0.4593325    1.4513994    1.0461873 
C     2.1902834   -0.3502654   -2.9650830 
C     1.4411709   -1.6604791   -2.7166041 
H     3.0351236   -0.5047481   -3.6547634 
H     2.5902519    0.0821973   -2.0357425 
H     1.5238597    0.4018945   -3.4208431 
H     2.1228326   -2.4209914   -2.2956538 
H     1.0790791   -2.0636252   -3.6785182 
C     0.2378395   -1.5371172   -1.7766330 
O     0.6381863   -1.2489652   -0.4408145 
C    -0.5850879   -2.8171157   -1.7287431 
H    -0.4082395   -0.7145502   -2.1534722 
H     0.0363747   -3.6534396   -1.3702923 
H    -0.9789148   -3.0716501   -2.7247291 
H    -1.4365868   -2.7062448   -1.0403222 
H     1.3054506   -0.5167597   -0.3918523 
C     3.7481715   -1.6067526    0.7636064 
C     3.9366311   -0.2560558    1.4533449 
H     4.6524218   -2.2285921    0.8614093 
H     3.5428162   -1.4828817   -0.3094258 
H     2.9002703   -2.1644223    1.1928196 
H     4.7305067    0.3191779    0.9437838 
H     4.2790128   -0.4108404    2.4914056 
C     2.6807883    0.6091642    1.5091313 
O     2.2180619    0.8322461    0.1718282 
C     2.9249726    1.9445901    2.2052093 
H     1.8942130    0.0580837    2.0635492 
H     3.7090511    2.5122970    1.6778967 
H     3.2449973    1.7917900    3.2483703 
H     2.0064733    2.5520885    2.2112986 
H     1.4478101    1.4533283    0.2300071 
