60
-933.54036567830
C    -3.8732664   -0.7346882   -1.2306177 
C    -3.0747497   -2.0361361   -1.2353396 
H    -4.6411751   -0.7360960   -2.0201799 
H    -3.2172554    0.1319068   -1.3987129 
H    -4.3864825   -0.5823400   -0.2668529 
H    -2.5970029   -2.1803995   -2.2207651 
H    -3.7514379   -2.8949820   -1.0821836 
C    -1.9794601   -2.0994752   -0.1714563 
O    -1.0967165   -1.0015211   -0.3762291 
C    -1.2169693   -3.4191391   -0.2099693 
H    -2.4577555   -1.9974083    0.8268074 
H    -0.7213692   -3.5461722   -1.1863961 
H    -1.8983519   -4.2698533   -0.0516752 
H    -0.4447402   -3.4522413    0.5734384 
H    -0.2027348   -1.1710004    0.0069308 
C    -4.0733464    2.3112717    0.9320188 
C    -3.0885450    1.5273095    1.7957094 
H    -5.1118121    1.9899916    1.1105645 
H    -3.8492124    2.1737353   -0.1355835 
H    -4.0137334    3.3915139    1.1469495 
H    -3.2177323    0.4414916    1.6332552 
H    -3.2974120    1.7028396    2.8655446 
C    -1.6228926    1.8809436    1.5240184 
O    -1.2904936    1.6442786    0.1552471 
C    -0.6615941    1.1477697    2.4578816 
H    -1.4987927    2.9698697    1.6651845 
H    -0.7012273    0.0619340    2.2795542 
H    -0.9142721    1.3387252    3.5130931 
H     0.3750177    1.4727531    2.2875633 
H    -1.3545314    0.6726364   -0.0261458 
C     3.4593739    0.8728918    2.0353894 
C     3.0054765   -0.5592080    2.3196139 
H     3.6994943    1.4065420    2.9686923 
H     2.6913448    1.4498510    1.4992712 
H     4.3655493    0.8796319    1.4055903 
H     2.1447187   -0.5598490    3.0120032 
H     3.8179101   -1.1086213    2.8274629 
C     2.5986307   -1.3492713    1.0699435 
O     1.4100034   -0.8329500    0.4881042 
C     2.3546990   -2.8206476    1.3737575 
H     3.4238899   -1.2758499    0.3305125 
H     1.5517870   -2.9280292    2.1220200 
H     3.2631491   -3.2974713    1.7724412 
H     2.0510365   -3.3568334    0.4619530 
H     1.5138351    0.1035736    0.1780831 
C     3.3877592    1.0707944   -3.5791524 
C     2.8518745    0.9422077   -2.1550087 
H     4.3592575    0.5624427   -3.6825697 
H     3.5349859    2.1280930   -3.8576111 
H     2.7039356    0.6249066   -4.3190305 
H     3.5996437    1.3227486   -1.4383595 
H     2.6869696   -0.1195964   -1.8998896 
C     1.5486614    1.7008777   -1.8959575 
O     1.3144026    1.6526571   -0.4875294 
C     0.3529769    1.1447766   -2.6647699 
H     1.7020709    2.7595831   -2.1908477 
H     0.1521466    0.1035868   -2.3669874 
H     0.5269401    1.1817158   -3.7511243 
H    -0.5526248    1.7322568   -2.4469929 
H     0.3601492    1.8316728   -0.2906615 
