90
-1400.32625845051
C    -2.8019241   -2.2828883    0.3483516 
C    -2.2553085   -2.4139922    1.7683068 
H    -3.1263843   -3.2576971   -0.0475972 
H    -2.0415613   -1.8857148   -0.3383338 
H    -3.6691301   -1.6033977    0.3156964 
H    -1.4491612   -3.1681817    1.7931020 
H    -3.0463740   -2.7831917    2.4441345 
C    -1.6980334   -1.1063503    2.3430450 
O    -0.5960903   -0.6397119    1.5605073 
C    -1.2261609   -1.2535801    3.7834921 
H    -2.4963183   -0.3391569    2.3058365 
H    -0.4111931   -1.9919390    3.8432357 
H    -2.0467991   -1.5899027    4.4363593 
H    -0.8434582   -0.2943255    4.1625487 
H    -0.9005015    0.0234034    0.8984851 
C     1.9626059   -3.2184145    2.2525216 
C     2.5961595   -3.2588628    0.8636945 
H     2.3385061   -4.0366794    2.8866163 
H     0.8691111   -3.3228669    2.1878972 
H     2.1769231   -2.2665854    2.7637204 
H     2.3569571   -4.2175877    0.3692792 
H     3.6961050   -3.2161243    0.9528841 
C     2.1528475   -2.1205927   -0.0599421 
O     0.7313605   -2.1238470   -0.2224700 
C     2.7755755   -2.2383297   -1.4442507 
H     2.4456073   -1.1540830    0.3889969 
H     2.4404200   -3.1672404   -1.9339291 
H     3.8741787   -2.2596486   -1.3804421 
H     2.4863185   -1.3879624   -2.0791717 
H     0.3023098   -1.6648112    0.5435643 
C    -3.8270847    0.5507457   -1.9142715 
C    -3.6186852    1.3920766   -0.6570081 
H    -4.8370432    0.1126309   -1.9384392 
H    -3.1068219   -0.2786049   -1.9683712 
H    -3.7056059    1.1607154   -2.8251188 
H    -3.7859262    0.7773264    0.2449335 
H    -4.3671582    2.2025034   -0.6223152 
C    -2.2335650    2.0313767   -0.5477379 
O    -1.2050534    1.0344805   -0.4637102 
C    -2.0943847    2.9211109    0.6772046 
H    -2.0505453    2.6334486   -1.4577485 
H    -2.3412704    2.3549532    1.5905356 
H    -2.7818178    3.7782055    0.6120978 
H    -1.0656628    3.2959152    0.7871127 
H    -1.1218794    0.4643824   -1.2725776 
C    -0.8700824   -3.6880118   -2.7785595 
C    -1.3586083   -2.4710208   -3.5641818 
H    -1.6073516   -4.5055951   -2.8139204 
H    -0.6782040   -3.4452777   -1.7235550 
H     0.0743371   -4.0731692   -3.1997495 
H    -2.3463235   -2.1456176   -3.1922979 
H    -1.5000215   -2.7465557   -4.6241427 
C    -0.4124012   -1.2665938   -3.5029463 
O    -0.3499133   -0.7126175   -2.1917435 
C    -0.8260563   -0.1474987   -4.4485917 
H     0.6036991   -1.6087753   -3.7857386 
H    -1.8375138    0.2122101   -4.2015350 
H    -0.8308978   -0.4952351   -5.4928345 
H    -0.1298736    0.7014954   -4.3677209 
H     0.0993214   -1.3175806   -1.5404382 
C     0.6494090    3.4500453   -2.2151757 
C     2.0978678    3.0627884   -1.9280081 
H     0.5902415    4.4285747   -2.7167278 
H     0.0711600    3.5242309   -1.2834604 
H     0.1549257    2.7078419   -2.8648791 
H     2.5368297    3.7783147   -1.2101341 
H     2.6968065    3.1364673   -2.8530101 
C     2.2725016    1.6455344   -1.3688531 
O     1.5232264    1.4428385   -0.1741827 
C     3.7304538    1.3492640   -1.0479237 
H     1.9086628    0.9241945   -2.1268043 
H     4.1009836    2.0535359   -0.2855131 
H     4.3590589    1.4513202   -1.9461234 
H     3.8460464    0.3298874   -0.6547005 
H     0.5655652    1.3853612   -0.3726063 
C     2.5169065    0.7585364    2.9371441 
C     1.7813967    1.8163420    3.7582097 
H     3.2755358    0.2360422    3.5423968 
H     3.0253676    1.2069299    2.0710957 
H     1.8069617    0.0134564    2.5465046 
H     2.4882621    2.5879634    4.1131547 
H     1.3483813    1.3459710    4.6599609 
C     0.6492655    2.5178758    2.9944015 
O     1.1297976    3.2411467    1.8738926 
C    -0.1016593    3.5036547    3.8799974 
H    -0.0558686    1.7306999    2.6573745 
H     0.5785865    4.3056944    4.2103446 
H    -0.5140643    3.0061371    4.7722369 
H    -0.9291867    3.9710199    3.3247275 
H     1.4123852    2.6071704    1.1838915 
