90
-1400.30182005760
C    -5.4056491    0.8908778    1.0398260 
C    -4.8835678    0.2032340   -0.2210875 
H    -5.2786399    1.9825057    0.9795556 
H    -4.8555464    0.5599023    1.9369158 
H    -6.4780670    0.6872163    1.2014570 
H    -3.8123509    0.4299428   -0.3469332 
H    -5.4047396    0.6030559   -1.1077619 
C    -5.0641632   -1.3186788   -0.2128379 
O    -4.3820425   -1.9202821    0.9035349 
C    -4.5165366   -1.9924582   -1.4606701 
H    -6.1444584   -1.5483277   -0.1220968 
H    -3.4307064   -1.8299349   -1.5354550 
H    -4.9906089   -1.5831491   -2.3653399 
H    -4.6977565   -3.0767741   -1.4252824 
H    -4.7847020   -1.6022814    1.7231037 
C    -1.7190451    0.4081808    3.3359089 
C    -1.3414071   -1.0397405    3.0308131 
H    -2.0573955    0.5262091    4.3774787 
H    -2.5247746    0.7534241    2.6700593 
H    -0.8573400    1.0771534    3.1821059 
H    -2.1997132   -1.7110384    3.2265792 
H    -0.5381130   -1.3714441    3.7092638 
C    -0.8658609   -1.2569284    1.5933154 
O    -1.8702720   -0.8292660    0.6599723 
C    -0.4637310   -2.6995597    1.3099378 
H    -0.0097571   -0.5909716    1.4032575 
H    -1.3164092   -3.3812824    1.4713415 
H     0.3598633   -3.0161315    1.9681347 
H    -0.1279572   -2.8008729    0.2670264 
H    -2.6966405   -1.3403405    0.8077130 
C    -2.6973467    0.1378881   -4.4961522 
C    -1.9578355    0.3797242   -3.1813944 
H    -3.4849104    0.8916079   -4.6531637 
H    -3.1800607   -0.8542426   -4.5040244 
H    -2.0212583    0.1837177   -5.3645621 
H    -2.6862703    0.4031929   -2.3539209 
H    -1.4717351    1.3711263   -3.1893073 
C    -0.8977317   -0.6787327   -2.8467844 
O    -0.4192927   -0.5152812   -1.5197340 
C     0.3119222   -0.6359033   -3.7699241 
H    -1.3719190   -1.6785623   -2.9331848 
H     0.8100432    0.3449098   -3.6959498 
H     0.0246634   -0.8015750   -4.8187819 
H     1.0392160   -1.4086655   -3.4815533 
H    -1.1219571   -0.6807528   -0.8409772 
C     0.8020503    4.6941321   -1.6261423 
C     1.0197434    3.1906968   -1.4648077 
H     1.2870947    5.0685791   -2.5412795 
H     1.2282986    5.2511484   -0.7745765 
H    -0.2672177    4.9525958   -1.6907079 
H     2.0973039    2.9589658   -1.5026988 
H     0.5537654    2.6475397   -2.3080745 
C     0.4816003    2.6022303   -0.1544567 
O     0.8973208    1.2451375   -0.0259775 
C    -1.0329606    2.7101819    0.0039570 
H     0.9642912    3.1329380    0.6860529 
H    -1.5479113    2.2198339   -0.8374721 
H    -1.3589732    3.7611220    0.0400380 
H    -1.3526749    2.2128582    0.9304239 
H     0.4260417    0.6853113   -0.6916881 
C     5.9159799    0.9803386   -1.9226106 
C     5.2133523   -0.3263313   -1.5613026 
H     7.0013187    0.8343663   -2.0439880 
H     5.7534837    1.7327902   -1.1369298 
H     5.5247160    1.3947622   -2.8679500 
H     5.6398842   -0.7424022   -0.6313951 
H     5.3763488   -1.0811197   -2.3503538 
C     3.7086345   -0.1665344   -1.3509620 
O     3.5212416    0.7784249   -0.3010120 
C     3.0214305   -1.4933999   -1.0292497 
H     3.2683088    0.2466602   -2.2837953 
H     3.4278609   -1.9008630   -0.0908457 
H     3.1885577   -2.2271213   -1.8352487 
H     1.9350186   -1.3558118   -0.9199801 
H     2.5549260    0.9543595   -0.1971181 
C     2.2429741   -2.2768239    4.6621314 
C     3.4241433   -1.7190066    3.8712548 
H     2.5823394   -2.9723499    5.4462151 
H     1.5489295   -2.8330370    4.0090633 
H     1.6635646   -1.4819069    5.1594255 
H     4.0165165   -2.5459294    3.4448443 
H     4.1092822   -1.1664493    4.5386844 
C     3.0515738   -0.7948923    2.7097053 
O     4.2454025   -0.5285165    2.0082565 
C     2.3724382    0.4996216    3.1637271 
H     2.3350225   -1.3437875    2.0570845 
H     3.0654941    1.0873667    3.7878129 
H     1.4584500    0.3012918    3.7459347 
H     2.0817416    1.1047453    2.2918113 
H     4.0358543    0.0375933    1.2337791 
