21
-365.95497768913
C    -1.1122267   -1.1862715    0.7272590 
C    -0.3550965    0.0515660    1.2030619 
H    -0.6261383   -2.1169109    1.0646000 
H    -1.1754751   -1.1920595   -0.3715307 
H    -2.1469375   -1.1936584    1.1089807 
H     0.6991115   -0.0038811    0.8764624 
H    -0.3322335    0.0865179    2.3066976 
C    -0.9560965    1.3665937    0.6800714 
O    -1.1308182    1.3501097   -0.7244014 
C    -0.1392457    2.5801102    1.1233039 
H    -1.9785761    1.4597153    1.0917740 
H     0.8886818    2.5149575    0.7265123 
H    -0.0754383    2.6484850    2.2218530 
H    -0.5946029    3.5055439    0.7391064 
H    -0.2563403    1.2550321   -1.1386574 
C     1.5915432   -2.3425803   -1.9542905 
C     1.4816167   -0.8898626   -1.9248875 
H     2.5858035   -2.6590197   -1.6046556 
H     0.8252010   -2.7783860   -1.2949798 
H     1.4373853   -2.7174959   -2.9773200 
N     1.3698828    0.2614949   -1.8789598 
