21
-365.95497126981
C     0.2400148   -0.2499510   -1.7462534 
C    -0.2453028    0.8895356   -0.8528463 
H    -0.5981656   -0.7566990   -2.2529501 
H     0.7977746   -0.9876330   -1.1494098 
H     0.9274632    0.1180424   -2.5262541 
H    -0.9931753    0.5106187   -0.1331290 
H    -0.7621752    1.6565743   -1.4564502 
C     0.8884436    1.5641465   -0.0634148 
O     1.6751938    0.6247646    0.6451100 
C     0.3614742    2.6586386    0.8644516 
H     1.5827907    2.0231643   -0.7919825 
H    -0.3360789    2.2297647    1.6046237 
H    -0.1763903    3.4420553    0.3053706 
H     1.1940852    3.1260348    1.4118800 
H     1.1055024    0.1791477    1.2949098 
C    -1.1138705   -3.2106246    0.5381566 
C    -0.6150446   -2.1146007    1.3586534 
H    -2.1999269   -3.3264910    0.6724039 
H    -0.9053824   -2.9956823   -0.5211912 
H    -0.6177799   -4.1528938    0.8155505 
N    -0.2094500   -1.2279119    1.9827713 
