21
-365.95446820865
C    -0.1680381    0.3818987   -2.3682417 
C    -1.3950820    0.7110359   -1.5135531 
H    -0.2755553    0.7984144   -3.3819507 
H    -0.0175404   -0.7041739   -2.4720855 
H     0.7620808    0.7969414   -1.9450051 
H    -2.2854938    0.2160299   -1.9397011 
H    -1.5930308    1.7957566   -1.5485289 
C    -1.2794507    0.3193165   -0.0320976 
O    -0.3120393    1.1220625    0.6384823 
C    -1.0111690   -1.1708712    0.1874494 
H    -2.2369863    0.5739905    0.4539993 
H    -0.0293918   -1.4631498   -0.2174119 
H    -1.7806466   -1.7902129   -0.3019025 
H    -1.0176012   -1.4042008    1.2637463 
H     0.5243522    1.0422383    0.1567753 
C     1.8653954   -0.2374170    2.6397088 
C     2.3605636   -0.1584135    1.2708942 
H     1.7400929   -1.2879180    2.9422030 
H     2.5621421    0.2555477    3.3340031 
H     0.8886034    0.2698880    2.6672805 
N     2.6987948   -0.0667632    0.1659360 
