27
-498.55373442686
C     1.6399123   -2.5506334   -0.3653018 
C     0.9181698   -1.2035138   -0.3433011 
H     1.9648077   -2.8437094    0.6456918 
H     2.5391586   -2.5127515   -1.0040968 
H     0.9956113   -3.3576261   -0.7492674 
H     1.5566762   -0.4508953    0.1500348 
H     0.0009003   -1.2739704    0.2677614 
C     0.5407867   -0.6545712   -1.7274836 
O     0.0364832    0.6699191   -1.6286220 
C    -0.4454364   -1.5452273   -2.4829360 
H     1.4667802   -0.5694394   -2.3261833 
H    -1.3699799   -1.6787112   -1.8955035 
H    -0.0249817   -2.5414484   -2.6914524 
H    -0.7140313   -1.0750261   -3.4410627 
H    -0.7996630    0.6381722   -1.1240262 
C    -2.7309719    0.9511563    2.7789769 
C    -2.4203075    0.7577219    1.3700275 
H    -2.9691867   -0.0134466    3.2519898 
H    -1.8458418    1.3950142    3.2628641 
H    -3.5916505    1.6277878    2.8901835 
N    -2.1411441    0.6144646    0.2559855 
C     1.4598300    2.6956563    0.3918739 
C     0.7931238    2.4287959    1.6593036 
H     1.0258039    2.0506961   -0.3957903 
H     1.3300199    3.7524701    0.1124403 
H     2.5363586    2.4831854    0.4801477 
N     0.2487724    2.2059301    2.6577464 
