27
-498.55559220839
C    -0.5581939   -0.0563324    1.8777646 
C    -0.3868367    1.3980549    1.4444910 
H    -0.0129220   -0.2625612    2.8125669 
H    -0.1767659   -0.7441178    1.1093472 
H    -1.6206156   -0.3004214    2.0496246 
H     0.6815732    1.6045061    1.2518534 
H    -0.6891679    2.0758523    2.2622970 
C    -1.1896238    1.7732235    0.1913863 
O    -0.9276600    0.8968850   -0.8950778 
C    -0.9617888    3.2265761   -0.2219122 
H    -2.2636084    1.6350969    0.4174671 
H     0.1040179    3.3988135   -0.4493667 
H    -1.2561294    3.9246990    0.5788801 
H    -1.5455724    3.4609191   -1.1249781 
H     0.0379632    0.8534438   -1.0383853 
C     3.4095725   -1.8314196   -0.6149794 
C     2.5579515   -0.6745049   -0.8503286 
H     2.7609220   -2.7180859   -0.5257819 
H     4.1091670   -1.9664716   -1.4535926 
H     3.9839526   -1.6973723    0.3140557 
N     1.8558123    0.2271624   -1.0341556 
C    -1.7492656   -2.1500990   -1.1099671 
C    -0.4830014   -2.8178572   -0.8414228 
H    -2.4886043   -2.4257157   -0.3424705 
H    -1.5929190   -1.0546205   -1.0875883 
H    -2.1331982   -2.4490430   -2.0972690 
N     0.5349412   -3.3266098   -0.6224578 
