27
-498.55478775516
C     1.2896855    1.1230436   -0.6152292 
C     1.8445126   -0.2504215   -0.9930779 
H     1.3630520    1.8227413   -1.4629506 
H     1.8361367    1.5724851    0.2295982 
H     0.2289488    1.0546228   -0.3328052 
H     2.8949865   -0.1609918   -1.3231113 
H     1.2835552   -0.6372610   -1.8615264 
C     1.7831741   -1.3091448    0.1222093 
O     0.4652197   -1.4866062    0.6184161 
C     2.6739422   -0.9913316    1.3168989 
H     2.1404487   -2.2637236   -0.3188196 
H     2.3782096   -0.0422839    1.7917290 
H     3.7293094   -0.9125159    1.0122916 
H     2.5854969   -1.7872487    2.0720453 
H    -0.1515676   -1.5878027   -0.1315470 
C    -3.3330423    0.4684543   -2.2547274 
C    -2.3165345   -0.4768206   -1.8161684 
H    -4.2808858   -0.0550103   -2.4509549 
H    -3.4771934    1.2093539   -1.4514785 
H    -3.0066183    0.9774562   -3.1741714 
N    -1.5039119   -1.2109645   -1.4415606 
C    -1.0991961    0.6180831    2.4039735 
C    -2.0124637    1.2342154    1.4513252 
H    -0.4143294    1.3770294    2.8122406 
H    -1.6646556    0.1666684    3.2334416 
H    -0.5081339   -0.1632655    1.8893428 
N    -2.7281452    1.7112391    0.6746166 
