39
-763.74745717071
C     1.7083327    0.3337655   -4.6984958 
C     1.0981260    0.0889573   -3.3188632 
H     1.8077086   -0.6083391   -5.2602111 
H     2.7149253    0.7781922   -4.6171399 
H     1.0927921    1.0156127   -5.3068829 
H     1.6904634   -0.6744296   -2.7851041 
H     0.0780996   -0.3245566   -3.4177917 
C     1.0263456    1.3328609   -2.4235707 
O     0.5649999    0.9808380   -1.1257912 
C     0.0942739    2.4129879   -2.9532481 
H     2.0492640    1.7592004   -2.3460223 
H    -0.9264551    2.0127844   -3.0712310 
H     0.4332319    2.7954177   -3.9275301 
H     0.0515905    3.2574348   -2.2484334 
H     1.1527396    0.2917824   -0.7488272 
C     1.7969369   -2.5388787    2.3730299 
C     1.8832463   -1.7187436    1.1760761 
H     0.8793498   -3.1438924    2.3121565 
H     2.6804646   -3.1879616    2.4628965 
H     1.7217677   -1.8688506    3.2431574 
N     1.9276163   -1.0521706    0.2312261 
C    -2.1497330   -1.3002928    4.2796586 
C    -2.6626922   -0.2918877    3.3620249 
H    -2.8427627   -1.4454169    5.1216861 
H    -2.0190664   -2.2455580    3.7316862 
H    -1.1671727   -0.9741996    4.6525044 
N    -3.0498896    0.5073675    2.6171959 
C    -0.1920890    2.1378835    1.8079058 
C     0.2985894    1.1369238    2.7448493 
H     0.1928256    3.1319748    2.0818650 
H     0.1297631    1.8895468    0.7815848 
H    -1.2922392    2.1461605    1.8470512 
N     0.6707577    0.3314413    3.4909647 
C    -2.0450837   -0.8107403   -0.3292537 
C    -1.6337956   -1.8570271    0.5955688 
H    -2.7330806   -0.1277805    0.1921359 
H    -1.1666479   -0.2379152   -0.6745238 
H    -2.5537121   -1.2538497   -1.1989314 
N    -1.3097907   -2.6786418    1.3466272 
