45
-896.34072008194
C    -1.3439710   -3.6814259   -0.2591051 
C    -0.3418641   -3.4379724   -1.3863642 
H    -2.2081926   -4.2645537   -0.6147811 
H    -1.7238028   -2.7379517    0.1603650 
H    -0.8813351   -4.2396510    0.5719007 
H    -0.8263110   -2.8927489   -2.2168328 
H    -0.0106581   -4.4065829   -1.8008459 
C     0.9026128   -2.6471084   -0.9658383 
O     0.5658300   -1.3316103   -0.5329412 
C     1.9050505   -2.5158606   -2.1048086 
H     1.3887928   -3.1869058   -0.1275707 
H     1.4468059   -1.9926718   -2.9601908 
H     2.2415793   -3.5054949   -2.4500360 
H     2.7867438   -1.9411992   -1.7818876 
H     0.1800011   -1.3655577    0.3689161 
C    -1.1683314    0.4445158    4.0265308 
C    -0.8072051   -0.4279061    2.9224948 
H    -0.2408782    0.7913490    4.5085448 
H    -1.7198615    1.3047253    3.6157455 
H    -1.7980093   -0.0916575    4.7519748 
N    -0.5081854   -1.0928960    2.0240819 
C    -2.5103382    0.1927009   -0.6783429 
C    -2.4606050    1.1527412    0.4153166 
H    -2.7099100    0.7235310   -1.6201640 
H    -1.5419408   -0.3249559   -0.7638193 
H    -3.2994672   -0.5508680   -0.4906185 
N    -2.4199491    1.9160704    1.2864411 
C     1.2207282    1.2941312   -2.3986475 
C    -0.0664996    1.9620586   -2.5281384 
H     1.5932559    0.9868437   -3.3874914 
H     1.9370149    1.9835344   -1.9283894 
H     1.1038629    0.4034819   -1.7585266 
N    -1.0995467    2.4830671   -2.6042865 
C    -0.9764294    4.6135268    0.0217272 
C     0.3519022    4.0175556    0.0491016 
H    -0.9137531    5.6983017    0.1945422 
H    -1.4325901    4.4142294   -0.9600789 
H    -1.6029201    4.1418807    0.7936380 
N     1.4037892    3.5320649    0.0564947 
C     2.7333741    0.7251208    1.2871453 
C     2.3484093    0.8267747    2.6883686 
H     3.7981999    0.4594254    1.2037802 
H     2.1265083   -0.0431177    0.7816422 
H     2.5533518    1.6934032    0.7934362 
N     2.0247417    0.9176626    3.7975173 
