45
-896.33888551454
C     2.6666184   -3.4861238    0.2486642 
C     1.3234304   -2.7604218    0.1921745 
H     2.7939079   -4.0029643    1.2126723 
H     3.5065619   -2.7798073    0.1375361 
H     2.7622331   -4.2433171   -0.5457536 
H     1.2340112   -2.0837022    1.0580266 
H     0.4938783   -3.4858394    0.2755395 
C     1.1107903   -1.9286498   -1.0719680 
O    -0.1035772   -1.1965001   -0.9017102 
C     1.0507717   -2.7581264   -2.3520545 
H     1.9548218   -1.2129852   -1.1582526 
H     0.2308066   -3.4927657   -2.2920679 
H     1.9937198   -3.2979097   -2.5301437 
H     0.8686822   -2.1070161   -3.2216813 
H    -0.1809563   -0.5804039   -1.6578561 
C     0.8481590    3.3559967   -2.8767360 
C     0.3698963    1.9831085   -2.8549364 
H     1.9352446    3.3548416   -2.7065045 
H     0.6080001    3.8346863   -3.8376371 
H     0.3621435    3.9031499   -2.0535500 
N    -0.0185470    0.8938133   -2.8003314 
C    -2.7129514    1.0501617   -0.8455029 
C    -1.8937561    2.1807833   -0.4324475 
H    -3.6208167    1.0122588   -0.2266551 
H    -2.9728317    1.1433663   -1.9097873 
H    -2.1453782    0.1193893   -0.7032357 
N    -1.2344164    3.0742687   -0.0989624 
C    -1.7119981    2.6832703    3.2823912 
C    -2.7648961    1.8325128    2.7440884 
H    -1.3567995    3.3580885    2.4885828 
H    -2.0889764    3.2749280    4.1298430 
H    -0.8806117    2.0435283    3.6169530 
N    -3.5812062    1.1421395    2.2962730 
C    -1.8793935   -1.7496364    1.7878863 
C    -0.9460817   -0.9581050    2.5771328 
H    -1.5100438   -1.7967072    0.7508139 
H    -1.9584527   -2.7680409    2.1969918 
H    -2.8669348   -1.2643466    1.8135172 
N    -0.2021926   -0.3077583    3.1834344 
C     1.4479612    1.1693290    0.8575966 
C     2.3817260    1.6669061   -0.1426375 
H     1.9754037    0.6945843    1.6965967 
H     0.8358284    1.9975021    1.2403604 
H     0.7759189    0.4295866    0.3952347 
N     3.1003031    2.0629270   -0.9618975 
