36
-599.34715482558
C    -1.3531515    3.0923326   -2.5840660 
C    -1.0211213    2.2161778   -1.3769056 
H    -0.8380116    4.0637116   -2.5205279 
H    -2.4359105    3.2958624   -2.6461388 
H    -1.0487126    2.6210900   -3.5321266 
H    -1.2380669    2.7727629   -0.4490116 
H     0.0581307    1.9815558   -1.3536712 
C    -1.7951502    0.8927500   -1.3216143 
O    -1.4749042    0.1750934   -0.1275978 
C    -1.4937577   -0.0391680   -2.4858641 
H    -2.8808194    1.1202842   -1.3203496 
H    -0.4129409   -0.2471992   -2.5385335 
H    -1.8125933    0.3999603   -3.4426167 
H    -2.0228223   -0.9945922   -2.3501860 
H    -1.6667086    0.7336450    0.6493561 
C     0.9653442   -3.4467989    2.1208458 
C     0.6626030   -2.0153746    1.6797679 
H     0.3961488   -3.7120799    3.0259744 
H     2.0365735   -3.5773490    2.3526732 
H     0.7033559   -4.1813987    1.3428061 
H     0.8297378   -1.3241673    2.5242039 
H    -0.4037769   -1.9162044    1.4084322 
C     1.5031120   -1.5095608    0.4979060 
O     1.2442622   -0.1343736    0.2586564 
C     1.2992393   -2.3275507   -0.7778972 
H     2.5710124   -1.5670181    0.7818236 
H     0.2340413   -2.3358239   -1.0627513 
H     1.6300974   -3.3709681   -0.6560775 
H     1.8724193   -1.8778898   -1.6031543 
H     0.2802908   -0.0404641    0.0850449 
C     1.4251237    1.8953960    2.6579050 
C    -0.0141266    1.8682176    2.4449462 
H     1.8710550    1.2947491    1.8464201 
H     1.8011741    2.9288840    2.6239067 
H     1.6778275    1.4502047    3.6319337 
N    -1.1489745    1.8153040    2.2164877 
