42
-731.94149896257
C     2.8025681   -1.3480179   -1.1497570 
C     1.2834220   -1.3333582   -1.2642562 
O     0.9569884   -0.8081359   -2.5461229 
C     0.6366907   -2.7128520   -1.0564197 
H     0.8853399   -0.6619186   -0.4772888 
H     0.8825941   -3.0668417   -0.0390711 
C     1.0330592   -3.7591971   -2.0973260 
H    -0.4582901   -2.5722299   -1.0721948 
H     0.0004476   -0.6077701   -2.5471633 
O    -1.6404280    2.0014387    1.8016316 
H    -0.9259218    2.2739426    1.1912127 
C    -1.0502501    1.4227129    2.9556682 
H    -1.9009617    1.1096361    3.5892179 
C    -0.2286425    2.4615189    3.7180204 
C    -0.2273206    0.1727302    2.6144683 
H     0.6423899    0.4799668    2.0050492 
C    -1.0208475   -0.9022476    1.8763644 
H     0.1840023   -0.2385966    3.5533164 
N    -1.7001075    0.0956372   -2.0825446 
C    -2.5171796    0.5697048   -1.4134276 
H    -3.0390448    1.4580506    0.4066991 
C    -3.5215668    1.1646917   -0.5455057 
H    -3.9562599    2.0541324   -1.0264479 
H    -4.3235637    0.4376145   -0.3468473 
N     0.3090544    2.5206886   -0.2141925 
C     0.8716189    2.4182129   -1.2202448 
H     1.5354991    1.1769873   -2.7522122 
C     1.5676013    2.2505621   -2.4863620 
H     1.0697660    2.8413607   -3.2700698 
H     2.6120876    2.5840987   -2.3929005 
H     3.1208397   -1.7806932   -0.1882333 
H     3.2047412   -0.3249248   -1.2160792 
H     3.2497038   -1.9376415   -1.9648706 
H     2.1002803   -4.0248448   -2.0274797 
H     0.8508786   -3.3744388   -3.1123632 
H     0.4528269   -4.6868344   -1.9699159 
H     0.1556011    2.0546052    4.6675644 
H    -0.8451572    3.3462570    3.9383516 
H     0.6343609    2.7882389    3.1132126 
H    -0.4115129   -1.8006890    1.6950139 
H    -1.3654758   -0.5323087    0.9002560 
H    -1.9098313   -1.2092478    2.4532501 
