42
-731.94352480735
C     0.5269964   -2.7542523    0.4190025 
C     1.2558021   -3.0563566   -0.8902725 
H     0.8972324   -3.4001247    1.2300084 
H    -0.5584941   -2.9194959    0.3315933 
H     0.6837235   -1.7129325    0.7343139 
H     1.0902214   -4.1087069   -1.1819872 
H     2.3435813   -2.9519929   -0.7325702 
C     0.8670158   -2.1720357   -2.0843935 
O     1.1744719   -0.7967548   -1.8442913 
C    -0.6090458   -2.2301543   -2.4537664 
H     1.4584641   -2.5157540   -2.9559658 
H    -1.2309913   -1.8302759   -1.6381076 
H    -0.9220022   -3.2651039   -2.6613823 
H    -0.7985063   -1.6212991   -3.3509329 
H     2.0732597   -0.7141736   -1.4695755 
C    -1.3885134    3.0399941    1.1688732 
C    -1.9645913    2.4573810   -0.1225917 
H    -2.1571301    3.6018074    1.7230033 
H    -0.5547108    3.7327769    0.9720041 
H    -1.0123216    2.2461400    1.8318934 
H    -2.3899251    3.2643234   -0.7441414 
H    -2.8053149    1.7860526    0.1256577 
C    -0.9696181    1.6680460   -0.9803954 
O    -0.4359836    0.6183033   -0.1845514 
C     0.1512633    2.5205916   -1.5763327 
H    -1.5425117    1.2317227   -1.8247616 
H     0.7613642    2.9890821   -0.7877526 
H    -0.2554570    3.3185907   -2.2187407 
H     0.8137136    1.8896952   -2.1887241 
H     0.1488841    0.0708133   -0.7610179 
C    -1.8983510   -0.7637986    2.2771730 
C    -0.7206065   -0.6355021    3.1250628 
H    -2.2066096   -1.8179144    2.2107193 
H    -2.7305598   -0.1736828    2.6903160 
H    -1.6398303   -0.3850883    1.2729204 
N     0.2356015   -0.5164802    3.7690207 
C     2.1875151    1.2631449    1.8198852 
C     2.8263518    0.4544424    0.7945535 
H     1.1732596    1.4975952    1.4611431 
H     2.0902766    0.6944911    2.7565952 
H     2.7548362    2.1894185    1.9934578 
N     3.2772400   -0.1925331   -0.0549418 
