42
-731.94557595056
C    -2.0900855    1.7881723    2.7019346 
C    -2.2009123    0.2658871    2.7805059 
H    -2.9464439    2.2734241    3.1962114 
H    -2.0624345    2.1439019    1.6606437 
H    -1.1713902    2.1467255    3.1967128 
H    -3.1261591   -0.0752260    2.2825503 
H    -2.2805943   -0.0451875    3.8371205 
C    -1.0248880   -0.4892222    2.1566214 
O    -0.9388142   -0.2586078    0.7505956 
C    -1.1353417   -1.9960216    2.3451394 
H    -0.0887304   -0.1365382    2.6384910 
H    -2.0912290   -2.3614000    1.9351132 
H    -1.0907840   -2.2634008    3.4119219 
H    -0.3199542   -2.5086358    1.8143216 
H    -0.7949531    0.6876922    0.5414180 
C     2.2385279    0.3339817   -2.1213245 
C     2.5340094    0.0499153   -0.6513416 
H     2.4290785    1.3902616   -2.3714554 
H     1.1903237    0.1101010   -2.3633396 
H     2.8702758   -0.2830589   -2.7823294 
H     1.9035977    0.6961835   -0.0137425 
H     3.5809734    0.3122253   -0.4170936 
C     2.2946016   -1.4110510   -0.2454713 
O     0.9661104   -1.8228961   -0.5136905 
C     2.6676131   -1.6594833    1.2171270 
H     2.9326658   -2.0532395   -0.8808720 
H     2.0641378   -1.0217030    1.8852741 
H     3.7299395   -1.4338657    1.4058580 
H     2.4808205   -2.7103148    1.4864791 
H     0.3434855   -1.2280170   -0.0410915 
C    -0.1234279    3.2965795   -2.8167035 
C    -0.2827290    2.7138394   -1.4935467 
H    -0.5024048    2.5689031   -3.5533710 
H    -0.6936042    4.2346746   -2.8911407 
H     0.9395196    3.5012748   -3.0129115 
N    -0.4174823    2.2245230   -0.4535801 
C    -1.6942935   -1.5505531   -2.1397301 
C    -1.5302517   -0.4234550   -3.0465492 
H    -1.9890239   -1.1780579   -1.1461545 
H    -2.4537913   -2.2465570   -2.5261352 
H    -0.7294386   -2.0656164   -2.0091810 
N    -1.3865185    0.4838425   -3.7532839 
