48
-864.54261671763
C     3.1816351   -1.3085884   -0.3648922 
C     3.0836966   -0.0562923    0.5058964 
H     3.6723683   -2.1279802    0.1836517 
H     3.7612490   -1.1325247   -1.2854097 
H     2.1807260   -1.6599314   -0.6568351 
H     4.0851010    0.2379240    0.8670512 
H     2.4872895   -0.2955523    1.4016909 
C     2.4495819    1.1675739   -0.1769731 
O     1.1620568    0.8713528   -0.7012657 
C     3.2865150    1.7383567   -1.3149240 
H     2.3527981    1.9546463    0.6001695 
H     3.4174294    0.9988060   -2.1205787 
H     4.2824996    2.0430299   -0.9569474 
H     2.7891806    2.6207702   -1.7467137 
H     0.6473685    0.3486412   -0.0352270 
C     0.0863652   -1.6431343    3.8299540 
C    -1.1966978   -1.1079952    3.1950504 
H    -0.1341383   -2.4360909    4.5619926 
H     0.6451910   -0.8535722    4.3578226 
H     0.7497145   -2.0649275    3.0590952 
H    -1.8443064   -0.6458147    3.9614409 
H    -1.7767913   -1.9481289    2.7736788 
C    -0.9782916   -0.0866951    2.0706409 
O    -0.1956528   -0.6679905    1.0190654 
C    -0.2727469    1.1880651    2.5124866 
H    -1.9650077    0.1941587    1.6626792 
H     0.7511340    0.9799343    2.8607099 
H    -0.8254356    1.6721668    3.3322778 
H    -0.2101108    1.8984181    1.6741789 
H    -0.7635408   -1.2926113    0.5214922 
C    -1.3386361    2.6291213   -1.7048047 
C    -2.3465340    2.0305723   -0.8409609 
H    -1.3116468    3.7195335   -1.5577353 
H    -0.3533632    2.1944757   -1.4585928 
H    -1.5792988    2.4023326   -2.7538752 
N    -3.1382155    1.5403183   -0.1503644 
C     0.1863785   -1.1650695   -2.9623849 
C    -1.0404954   -0.5363991   -3.4297354 
H     0.8494222   -1.3914698   -3.8108119 
H     0.6988825   -0.4822567   -2.2610425 
H    -0.0599607   -2.0961604   -2.4306236 
N    -2.0197912   -0.0190559   -3.7731491 
C    -4.3328451   -1.0720124   -1.6127467 
C    -3.1110857   -1.5804376   -1.0107128 
H    -5.0845795   -1.8708664   -1.6958557 
H    -4.7121933   -0.2490062   -0.9893435 
H    -4.0888509   -0.6736134   -2.6098638 
N    -2.1263667   -1.9660202   -0.5386550 
