48
-864.53822336865
C    -0.6266168   -3.6219875   -1.7612916 
C     0.1484188   -2.4949737   -1.0909392 
O    -0.8058562   -1.5286263   -0.6603212 
C     1.0377053   -2.9642330    0.0717678 
H     0.8186084   -2.0413279   -1.8462015 
H     1.8238124   -3.6222093   -0.3394364 
C     0.3032007   -3.6733147    1.2099925 
H     1.5655306   -2.0769559    0.4645432 
H    -0.3437778   -0.8083439   -0.1786978 
O     0.2809429    0.4406940    0.9598475 
H    -0.2007752    1.2876793    0.8374170 
C     0.0386509   -0.0182506    2.2947438 
H     0.5990693   -0.9655675    2.3731358 
C    -1.4474054   -0.3029044    2.4956830 
C     0.6033596    0.9662905    3.3224099 
H     0.0409105    1.9144235    3.2449276 
C     2.0992265    1.2300214    3.1640248 
H     0.3949086    0.5656268    4.3300494 
C    -1.3462165   -0.0375380   -3.4323210 
H    -2.2918531   -0.2223826   -3.9639836 
H    -1.3570652   -0.5502499   -2.4517490 
C    -1.1547262    1.3902961   -3.2290157 
H    -0.5025095   -0.4358861   -4.0150997 
N    -0.9939945    2.5239927   -3.0474144 
N     1.9322433   -0.1213330   -3.0862070 
C     1.9977730    0.7527560   -2.3277933 
H     1.7691351    1.4557673   -0.3693868 
C     2.0480704    1.8421765   -1.3623127 
H     3.0579485    2.2771893   -1.3240312 
H     1.3230020    2.6159409   -1.6558514 
N    -0.9924044    2.9233048    0.5058329 
C    -1.4271624    3.7716697   -0.1491905 
H    -3.0424850    4.9315421   -0.8412640 
C    -1.9602851    4.8195481   -1.0059876 
H    -1.4623672    5.7775234   -0.7935340 
H    -1.7725630    4.5197714   -2.0489624 
H     0.0523877   -4.4205424   -2.0998338 
H    -1.1728751   -3.2416131   -2.6386199 
H    -1.3655321   -4.0555952   -1.0695842 
H    -0.1153775   -4.6398359    0.8871297 
H    -0.5318625   -3.0615165    1.5836383 
H     0.9814697   -3.8742506    2.0548779 
H    -1.6320730   -0.7755287    3.4735789 
H    -1.8089456   -0.9731763    1.7018362 
H    -2.0299272    0.6326132    2.4515517 
H     2.4678124    1.9251770    3.9348994 
H     2.3208252    1.6683941    2.1790794 
H     2.6796444    0.2957446    3.2480634 
