54
-997.13622742853
C    -1.0766552   -3.7573737   -0.7084808 
C    -1.3864310   -3.2854366    0.7110857 
H    -0.9337505   -4.8488003   -0.7474577 
H    -0.1656155   -3.2849715   -1.1026761 
H    -1.9011303   -3.5030247   -1.3954344 
H    -0.5742012   -3.5787882    1.4013258 
H    -2.2986420   -3.7833400    1.0828865 
C    -1.5900557   -1.7768418    0.8251605 
O    -0.3757479   -1.1253887    0.4565394 
C    -2.0299201   -1.3356399    2.2193171 
H    -2.3800644   -1.4871167    0.1030040 
H    -1.2954620   -1.6572408    2.9769495 
H    -3.0087524   -1.7667063    2.4849077 
H    -2.1112347   -0.2382733    2.2558318 
H    -0.5854544   -0.1675676    0.3302778 
C    -1.9660104    0.3091864   -2.3430400 
C    -2.7196305    1.2693272   -1.4228813 
H    -2.6654608   -0.3226455   -2.9131481 
H    -1.3037663   -0.3593626   -1.7753748 
H    -1.3445719    0.8629928   -3.0647218 
H    -3.3415537    0.7059193   -0.7030534 
H    -3.4179638    1.8796730   -2.0204672 
C    -1.8298295    2.2273004   -0.6349868 
O    -1.0404177    1.4614551    0.2860025 
C    -2.6341566    3.2747045    0.1285921 
H    -1.1454153    2.7341636   -1.3404904 
H    -3.3363940    2.7889901    0.8259671 
H    -3.2109801    3.9094595   -0.5630757 
H    -1.9651937    3.9273950    0.7113345 
H    -0.3987249    2.0669442    0.7104792 
C     2.4681438   -2.8878218    0.5588973 
C     2.6307724   -3.1743922   -0.8611042 
H     1.5436993   -2.3051460    0.7019625 
H     2.4005746   -3.8245396    1.1325643 
H     3.3244366   -2.3007223    0.9230544 
N     2.7365989   -3.3712063   -1.9982526 
C     1.8402883   -0.1387598   -1.9246812 
C     1.5321473    1.2696241   -2.1251063 
H     1.8738761   -0.6772285   -2.8824220 
H     2.8168420   -0.2302654   -1.4281464 
H     1.0762825   -0.6029729   -1.2827998 
N     1.2953986    2.3947564   -2.2738843 
C     1.6455642    0.2958670    2.6340702 
C     2.7390515    0.4933103    1.6931288 
H     1.2427269    1.2737254    2.9358787 
H     0.8487192   -0.2802048    2.1350382 
H     1.9965087   -0.2497097    3.5228183 
N     3.5909292    0.6417816    0.9207568 
C     3.1531119    3.8859857   -0.1003597 
C     1.9383056    3.5398257    0.6184490 
H     3.6017725    4.8008401    0.3143957 
H     3.8602400    3.0466042   -0.0101262 
H     2.9023115    4.0285965   -1.1617929 
N     0.9748846    3.2330593    1.1832883 
