54
-997.13681046071
C    -1.1219495   -0.1402262    4.2604480 
C    -0.2438142   -0.0906890    3.0108301 
H    -1.0569304   -1.1230877    4.7541953 
H    -2.1803716    0.0408505    4.0073848 
H    -0.8269775    0.6179776    5.0034380 
H    -0.5249031   -0.9132529    2.3330937 
H     0.8161127   -0.2606052    3.2719586 
C    -0.3562997    1.2186244    2.2199615 
O     0.2909839    1.1039993    0.9564457 
C     0.2589918    2.4137546    2.9330254 
H    -1.4338195    1.4204606    2.0587474 
H     1.3322346    2.2383917    3.1152117 
H    -0.2352419    2.6045887    3.8975236 
H     0.1591001    3.3199474    2.3152549 
H     0.0298588    0.2580715    0.5229446 
C     3.2314021   -2.4575931   -0.0994485 
C     1.8604493   -1.9249409    0.3150342 
H     3.9573027   -2.3569104    0.7227609 
H     3.6230362   -1.8976646   -0.9646406 
H     3.1964574   -3.5234340   -0.3770452 
H     1.9568351   -0.8825477    0.6580787 
H     1.4644226   -2.4981231    1.1734626 
C     0.8298705   -1.9440605   -0.8119678 
O    -0.3339545   -1.2319780   -0.3532333 
C     0.4281633   -3.3438143   -1.2639842 
H     1.2547646   -1.3958965   -1.6704474 
H     0.0237254   -3.9243273   -0.4175295 
H     1.2873294   -3.8920356   -1.6806362 
H    -0.3443481   -3.2869922   -2.0470852 
H    -0.8335923   -0.9524139   -1.1511165 
C    -2.9987269   -2.0872225    1.2309408 
C    -3.3523200   -0.6820994    1.0744614 
H    -2.8724525   -2.3277923    2.2973145 
H    -3.7843532   -2.7315661    0.8084443 
H    -2.0469148   -2.2595407    0.7032282 
N    -3.5994570    0.4423442    0.9417328 
C    -1.9663009    2.4870451   -1.0109693 
C    -1.2145557    3.0312613   -2.1319592 
H    -1.2599501    2.0390291   -0.2934869 
H    -2.5462357    3.2736542   -0.5070249 
H    -2.6548238    1.7025605   -1.3529243 
N    -0.5815508    3.4390792   -3.0141944 
C     0.0199621    0.7759785   -4.8792518 
C    -0.6645104    0.1644092   -3.7519650 
H    -0.0354563    1.8701457   -4.7664089 
H     1.0767183    0.4712392   -4.8534551 
H    -0.4460168    0.4677730   -5.8269143 
N    -1.1976175   -0.3098346   -2.8398665 
C     2.2301781    2.5627136   -1.1156586 
C     2.3659667    1.4251417   -2.0142173 
H     1.7121868    3.3787939   -1.6411493 
H     1.6307480    2.2534277   -0.2417180 
H     3.2221055    2.9061856   -0.7851692 
N     2.4545389    0.5112008   -2.7224548 
