51
-832.73865036521
C     1.6280353    2.1611605    0.9687045 
C     0.5884142    1.9511105   -0.1296780 
H     2.5909007    1.7003603    0.6970997 
H     1.2992575    1.7045795    1.9178393 
H     1.8174629    3.2293201    1.1632091 
H     0.4690696    0.8744984   -0.3217500 
H     0.9405504    2.3942133   -1.0785031 
C    -0.8043053    2.5140654    0.1911558 
O    -1.7691708    2.0419095   -0.7332128 
C    -0.8601294    4.0355425    0.1757413 
H    -1.0758406    2.1719086    1.2132806 
H    -0.5643727    4.4194020   -0.8153014 
H    -0.1880302    4.4731651    0.9295402 
H    -1.8855770    4.3781102    0.3817289 
H    -1.7754819    1.0571636   -0.6788939 
C     3.8884782   -1.6976717    0.0864198 
C     2.4873446   -1.2967256   -0.3724514 
H     4.4517987   -0.8215557    0.4443945 
H     4.4665001   -2.1492342   -0.7377311 
H     3.8591955   -2.4281372    0.9106735 
H     2.5607787   -0.4926669   -1.1246386 
H     1.9164434   -0.8737937    0.4719402 
C     1.6688152   -2.4378574   -0.9897845 
O     0.4363591   -1.9538202   -1.5153637 
C     1.3323214   -3.5529823   -0.0094988 
H     2.2588742   -2.8731354   -1.8220117 
H     0.7767354   -3.1551216    0.8553842 
H     2.2412758   -4.0475628    0.3636005 
H     0.7027908   -4.3084532   -0.5029533 
H     0.6094469   -1.3392026   -2.2594308 
C    -1.4264235   -1.7079057    3.2278005 
C    -1.1329628   -0.9453419    1.9368963 
H    -0.6467323   -1.5245591    3.9839145 
H    -1.4652496   -2.7959304    3.0481631 
H    -2.3902693   -1.4114970    3.6717393 
H    -0.1295468   -1.2185717    1.5699869 
H    -1.1011614    0.1409318    2.1304657 
C    -2.1315465   -1.2113106    0.8003446 
O    -1.6685569   -0.6590116   -0.4244270 
C    -3.5111073   -0.6209734    1.0609493 
H    -2.2284279   -2.3104076    0.6823929 
H    -3.4416572    0.4775786    1.1204319 
H    -3.9465512   -0.9998948    1.9975088 
H    -4.1918499   -0.8709346    0.2332631 
H    -0.8885034   -1.1690918   -0.7499366 
C    -0.9003493    2.2675111   -3.7286517 
C    -0.0910763    1.0696259   -3.5711453 
H    -1.6475434    2.1212105   -4.5230966 
H    -1.4035332    2.4511122   -2.7598816 
H    -0.2623152    3.1263840   -3.9863371 
N     0.5374227    0.1124871   -3.3998899 
