66
-1066.13625966083
C    -0.8173901   -2.5010004   -1.2271866 
C     0.2897917   -2.4141998   -2.2778691 
H    -0.7261796   -3.4317905   -0.6459709 
H    -1.8218373   -2.4937785   -1.6806890 
H    -0.7603632   -1.6633140   -0.5182310 
H     0.2415102   -3.2847278   -2.9559699 
H     1.2656843   -2.4753184   -1.7704551 
C     0.2850076   -1.1440617   -3.1435349 
O     0.3830502    0.0385689   -2.3520579 
C    -0.9434745   -1.0071766   -4.0328182 
H     1.1755223   -1.1947997   -3.8017195 
H    -1.8671558   -0.9570344   -3.4353978 
H    -1.0254856   -1.8644223   -4.7187748 
H    -0.8765168   -0.0867586   -4.6329098 
H     1.1043520   -0.0686168   -1.6770430 
C     2.5877975   -2.7538891    0.8925716 
C     3.4041398   -1.4901987    1.1633013 
H     2.6818221   -3.4662985    1.7273641 
H     2.9166079   -3.2729401   -0.0222055 
H     1.5214422   -2.5097319    0.7778265 
H     4.4646214   -1.7432715    1.3384718 
H     3.0472322   -1.0249173    2.0968048 
C     3.3483580   -0.4284939    0.0539181 
O     2.0023433   -0.1154986   -0.2916010 
C     4.0599156   -0.8366474   -1.2294915 
H     3.8321747    0.4862269    0.4451095 
H     3.6230068   -1.7529709   -1.6573079 
H     5.1295239   -1.0178695   -1.0421989 
H     3.9738820   -0.0367738   -1.9818037 
H     1.4274977    0.0058513    0.5063673 
C    -1.4880563   -1.0879043    3.7425319 
C    -1.4127339    0.4036377    3.4181225 
H    -2.4725612   -1.3535679    4.1591755 
H    -0.7256388   -1.3862927    4.4796390 
H    -1.3258598   -1.6882759    2.8341821 
H    -1.5243329    1.0052310    4.3375995 
H    -2.2631044    0.6817608    2.7725571 
C    -0.1185092    0.8381875    2.7137000 
O     0.0466773    0.1201961    1.4899509 
C     1.1361354    0.6312902    3.5496135 
H    -0.2012935    1.9197681    2.4876162 
H     1.3195307   -0.4410830    3.7193302 
H     1.0318624    1.1239375    4.5289513 
H     2.0069304    1.0670315    3.0392420 
H    -0.6447422    0.3916050    0.8411834 
C    -3.4060167    2.5616307    0.8365446 
C    -3.6763625    1.2132254    0.1679852 
H    -4.0186194    2.6775935    1.7442728 
H    -3.6406812    3.4065353    0.1700087 
H    -2.3495223    2.6528225    1.1312794 
H    -4.7316023    1.1507532   -0.1488653 
H    -3.5272757    0.4024181    0.9015672 
C    -2.7940096    0.9060949   -1.0446786 
O    -1.4359788    0.9088660   -0.6156889 
C    -2.9810151    1.8727738   -2.2122664 
H    -3.0562340   -0.1134010   -1.3918717 
H    -2.7223773    2.9015205   -1.9178228 
H    -4.0234803    1.8634652   -2.5697454 
H    -2.3288411    1.5889847   -3.0524551 
H    -0.8453971    0.5804143   -1.3466649 
C     1.0834779    2.9916342   -0.8362784 
C     1.9570502    2.8866513    0.3249944 
H     0.9965396    4.0413835   -1.1551166 
H     1.4784333    2.3871011   -1.6652429 
H     0.0849494    2.5967534   -0.5932888 
N     2.6457780    2.8031119    1.2534396 
