66
-1066.13052574982
C    -2.2353695    5.0296689   -0.0820815 
C    -1.1658253    3.9397873   -0.0401713 
H    -1.9750024    5.8085726   -0.8157938 
H    -2.3447726    5.5216867    0.8992496 
H    -3.2226151    4.6306820   -0.3650988 
H    -0.1777923    4.3902064    0.1517165 
H    -1.0928900    3.4420229   -1.0236071 
C    -1.3893032    2.8701882    1.0295011 
O    -0.2386189    2.0318863    1.0419119 
C    -2.6519846    2.0377419    0.8089287 
H    -1.4660525    3.3782056    2.0118207 
H    -2.5823743    1.5003156   -0.1520234 
H    -3.5571199    2.6646693    0.7967893 
H    -2.7662604    1.2933522    1.6109297 
H    -0.2436363    1.4640797    1.8582429 
C     2.2533827    3.0780472   -2.7819777 
C     1.8603626    2.0427004   -1.7296028 
H     3.0795153    3.7127325   -2.4244850 
H     1.4062309    3.7430771   -3.0227067 
H     2.5831501    2.6079487   -3.7224728 
H     1.6118318    2.5498657   -0.7830305 
H     2.7104602    1.3725619   -1.5087791 
C     0.6582358    1.1745096   -2.1180623 
O     0.2551037    0.3767150   -1.0083524 
C     0.9285211    0.2409339   -3.2903634 
H    -0.1770117    1.8511210   -2.3990246 
H     1.8155986   -0.3813313   -3.0894902 
H     1.1051340    0.8083453   -4.2162671 
H     0.0741581   -0.4338208   -3.4474775 
H     0.0401494    0.9737459   -0.2458789 
C    -0.2823209   -5.5862089   -0.6564557 
C    -0.8749145   -4.3467183   -1.3239495 
H    -0.8472364   -6.4917755   -0.9287761 
H    -0.3053084   -5.4984114    0.4433230 
H     0.7656139   -5.7529724   -0.9525573 
H    -1.9503058   -4.2769234   -1.0853157 
H    -0.8120271   -4.4287655   -2.4235988 
C    -0.2232281   -3.0263590   -0.9100746 
O    -0.9733613   -1.9850659   -1.5156380 
C     1.2524370   -2.9331241   -1.2944486 
H    -0.2940774   -2.9456884    0.1962613 
H     1.3739658   -3.0640478   -2.3824681 
H     1.8522037   -3.7001687   -0.7800371 
H     1.6522196   -1.9462626   -1.0195345 
H    -0.5537750   -1.1201140   -1.2955553 
C     2.8699740   -1.6995826    2.1028587 
C     1.5048397   -1.0160614    2.0471412 
H     2.9934064   -2.3913803    1.2556015 
H     2.9921528   -2.2838136    3.0310593 
H     3.6965697   -0.9728079    2.0557911 
H     0.7159055   -1.7848647    1.9823748 
H     1.4180166   -0.4138803    1.1273806 
C     1.1912907   -0.1256919    3.2553905 
O    -0.1322860    0.4114336    3.1552217 
C     2.1320325    1.0612463    3.4093679 
H     1.2489450   -0.7465315    4.1726889 
H     2.1080779    1.6877273    2.5030770 
H     3.1667254    0.7318163    3.5839873 
H     1.8170298    1.6807859    4.2628438 
H    -0.7724728   -0.3126175    2.9936554 
C    -3.5970964   -1.8250048    0.1150605 
C    -2.7663804   -1.5896734    1.2848987 
H    -2.9186600   -1.9067884   -0.7550212 
H    -4.1726279   -2.7551576    0.2340951 
H    -4.2923786   -0.9832078   -0.0235271 
N    -2.0781545   -1.3835575    2.1925358 
