66
-1066.13977769016
C    -0.1212424   -3.2835313    0.0681901 
C    -0.9194050   -2.8988515    1.3122596 
H     0.7541862   -3.8971272    0.3312926 
H     0.2371305   -2.3957218   -0.4708233 
H    -0.7405630   -3.8659200   -0.6343472 
H    -0.2690051   -2.3735619    2.0350918 
H    -1.2761308   -3.8094307    1.8245764 
C    -2.1307171   -2.0032459    1.0279178 
O    -1.7318267   -0.7428868    0.4850616 
C    -3.0028847   -1.7993632    2.2634250 
H    -2.7410786   -2.4748264    0.2366572 
H    -2.4155506   -1.3593690    3.0862656 
H    -3.4154745   -2.7575387    2.6170215 
H    -3.8390866   -1.1210545    2.0370305 
H    -1.1145676   -0.2840534    1.1089777 
C     0.2824527    1.5982482   -4.0098538 
C    -0.0303427    0.1049921   -4.0994190 
H     1.0177984    1.8958946   -4.7743907 
H     0.7001673    1.8606093   -3.0270141 
H    -0.6263592    2.2018341   -4.1524754 
H     0.8979266   -0.4929247   -4.0372779 
H    -0.4796564   -0.1213335   -5.0812973 
C    -0.9799056   -0.3989120   -3.0151271 
O    -0.3088011   -0.2917963   -1.7574480 
C    -1.4274121   -1.8384274   -3.2499730 
H    -1.8715650    0.2572108   -3.0026676 
H    -0.5566761   -2.5128248   -3.2918126 
H    -1.9855650   -1.9262396   -4.1956877 
H    -2.0861872   -2.1810217   -2.4358895 
H    -0.9155972   -0.5357399   -1.0160891 
C     2.8397559   -1.3652511    0.8396379 
C     3.1165537   -0.7957047   -0.5502836 
H     2.9685277   -2.4585318    0.8541061 
H     1.8168792   -1.1413022    1.1720230 
H     3.5286622   -0.9367180    1.5870598 
H     2.4649662   -1.2819394   -1.2983897 
H     4.1539548   -1.0276289   -0.8479854 
C     2.9144946    0.7200550   -0.6622167 
O     1.5480756    1.0838782   -0.4484650 
C     3.4150578    1.2727554   -1.9933610 
H     3.4715924    1.2118011    0.1560583 
H     2.9173144    0.7696431   -2.8378266 
H     4.5007767    1.1183771   -2.0980342 
H     3.2059095    2.3504824   -2.0656455 
H     0.9590550    0.5967753   -1.0815037 
C    -2.1246168    1.7459331    3.3376304 
C    -0.7380542    1.3774402    3.8624460 
H    -2.8972682    1.5924220    4.1073026 
H    -2.3971694    1.1370273    2.4643106 
H    -2.1631213    2.8052508    3.0327683 
H    -0.7241630    0.3258557    4.2026252 
H    -0.4959187    1.9926978    4.7456242 
C     0.3793614    1.5519702    2.8363832 
O     0.1515810    0.6373787    1.7698645 
C     1.7661201    1.3339698    3.4355616 
H     0.3241920    2.5868747    2.4388173 
H     1.8485747    0.3166364    3.8508564 
H     1.9689235    2.0596333    4.2394615 
H     2.5454362    1.4517704    2.6662143 
H     0.7584328    0.8354827    1.0088742 
C    -1.6156359    2.4913374   -0.3867216 
C    -2.2299230    2.8264770   -1.6645607 
H    -1.8652597    3.2501554    0.3697402 
H    -1.9820827    1.5140757   -0.0428024 
H    -0.5223544    2.4340820   -0.4905335 
N    -2.7126914    3.0637506   -2.6912101 
