72
-1198.73528682106
C     1.5479540    1.1746509    2.7329616 
C     2.2260551   -0.1588066    2.4162957 
H     2.2558238    2.0087518    2.6106982 
H     1.1725944    1.2105600    3.7681884 
H     0.6962804    1.3578940    2.0622828 
H     3.0511175   -0.3426723    3.1273970 
H     2.6859227   -0.1089227    1.4152076 
C     1.3032818   -1.3870276    2.4384746 
O     0.3090257   -1.3157090    1.4139909 
C     0.5830815   -1.6003308    3.7624228 
H     1.9357549   -2.2751993    2.2406962 
H    -0.0973442   -0.7629677    3.9807170 
H     1.3038448   -1.6831957    4.5908009 
H    -0.0153589   -2.5239487    3.7303961 
H     0.7568829   -1.1780034    0.5336353 
C     1.7084586    2.8383977   -0.5240089 
C     0.2385320    3.1962108   -0.7461084 
H     2.1101651    3.3724548    0.3507103 
H     2.3339137    3.1078461   -1.3900026 
H     1.8334073    1.7609564   -0.3441295 
H     0.1402154    4.2741593   -0.9668361 
H    -0.3277949    3.0175182    0.1829758 
C    -0.4641905    2.4198904   -1.8703252 
O    -0.5459165    1.0240715   -1.5733937 
C     0.1997133    2.5608906   -3.2327964 
H    -1.4966415    2.8153522   -1.9451480 
H     1.2155621    2.1369625   -3.2225482 
H     0.2715787    3.6202052   -3.5247864 
H    -0.3821065    2.0286100   -4.0011829 
H    -0.9788766    0.9040309   -0.6830183 
C     3.8833123   -0.0370814   -2.5017779 
C     2.6636370   -0.8181505   -2.9896947 
H     4.3422667    0.5320677   -3.3258191 
H     4.6584831   -0.7029179   -2.0900152 
H     3.6024116    0.6763642   -1.7125663 
H     2.9595411   -1.5464805   -3.7652982 
H     1.9572006   -0.1262669   -3.4821452 
C     1.8935295   -1.5742178   -1.8989150 
O     1.4216929   -0.6675623   -0.8971017 
C     2.7054614   -2.6451544   -1.1857258 
H     1.0275832   -2.0700661   -2.3715701 
H     3.5430265   -2.2017770   -0.6245221 
H     3.1100950   -3.3719104   -1.9066083 
H     2.0650062   -3.1930924   -0.4779884 
H     0.7851506   -0.0173024   -1.2868006 
C    -2.4449101    1.8273151    3.4725740 
C    -2.9126018    0.5253600    2.8227667 
H    -2.4995966    1.7613592    4.5708674 
H    -3.0633033    2.6849580    3.1631290 
H    -1.4029948    2.0507251    3.1981954 
H    -3.9658138    0.3222562    3.0857188 
H    -2.3326081   -0.3199162    3.2343261 
C    -2.7880077    0.4770331    1.2941767 
O    -1.4262287    0.6617459    0.8950261 
C    -3.6135477    1.5262018    0.5643963 
H    -3.1312479   -0.5154539    0.9531529 
H    -3.2634339    2.5433220    0.8009558 
H    -4.6762394    1.4467654    0.8399797 
H    -3.5351336    1.3762394   -0.5231490 
H    -0.8584704   -0.0728159    1.2385603 
C    -1.7259504   -3.6901993    0.5449918 
C    -1.1425517   -3.7788895   -0.7864522 
H    -1.6844438   -4.6675035    1.0489841 
H    -1.1533797   -2.9455745    1.1225349 
H    -2.7711912   -3.3580113    0.4569142 
N    -0.6737124   -3.8191904   -1.8460038 
C    -2.2317376   -1.2051342   -3.2233201 
C    -3.1016540   -1.4700114   -2.0857732 
H    -2.8259836   -0.9132043   -4.1022409 
H    -1.5440330   -0.3885174   -2.9473840 
H    -1.6503119   -2.1117170   -3.4485769 
N    -3.7702468   -1.6762239   -1.1613682 
