81
-1299.53672279062
C     2.3862270   -3.8810592   -0.2062561 
C     0.9970916   -4.5158211   -0.1520471 
H     3.1420161   -4.5345294    0.2571730 
H     2.4095864   -2.9150914    0.3174545 
H     2.6979510   -3.7003205   -1.2486489 
H     0.7158553   -4.7334801    0.8942069 
H     1.0119596   -5.4851360   -0.6789534 
C    -0.1080581   -3.6581505   -0.7649439 
O    -0.2642415   -2.4854604    0.0278721 
C    -1.4389145   -4.3984111   -0.8639021 
H     0.2079567   -3.3644645   -1.7881117 
H    -1.7790187   -4.7071298    0.1381055 
H    -1.3488043   -5.2960198   -1.4964264 
H    -2.2069640   -3.7450964   -1.3060650 
H    -0.9596893   -1.9015917   -0.3848687 
C     2.8409793    3.9143234    0.1719585 
C     1.4818922    3.9591445    0.8666442 
H     3.1091518    4.9013049   -0.2372125 
H     2.8396052    3.1946991   -0.6584098 
H     3.6351272    3.6179062    0.8786094 
H     0.6959512    4.2353989    0.1415365 
H     1.4730719    4.7442530    1.6426553 
C     1.0863405    2.6427629    1.5318585 
O     1.0361392    1.6253892    0.5319751 
C    -0.2424046    2.7291572    2.2786413 
H     1.8840410    2.3781951    2.2526691 
H    -1.0605775    2.9669016    1.5796423 
H    -0.2111307    3.5083439    3.0570028 
H    -0.4806688    1.7695842    2.7621513 
H     1.1049757    0.7319408    0.9507739 
C    -2.4078789   -0.3479957    1.7639357 
C    -3.3811496    0.0753320    0.6667967 
H    -2.5256084    0.2782407    2.6620738 
H    -1.3643374   -0.2573686    1.4334405 
H    -2.5681786   -1.3973952    2.0609997 
H    -3.1544286    1.1070185    0.3447943 
H    -4.4133941    0.0874784    1.0581180 
C    -3.3537464   -0.8315682   -0.5681418 
O    -2.0403550   -0.9242485   -1.1207548 
C    -4.3489882   -0.3900084   -1.6367046 
H    -3.6053010   -1.8606484   -0.2518197 
H    -4.1389564    0.6432713   -1.9573552 
H    -5.3818015   -0.4242739   -1.2544961 
H    -4.2794402   -1.0434764   -2.5194559 
H    -1.6661342   -0.0109769   -1.2509983 
C     3.7385729    0.0902852    2.6316423 
C     2.5141778   -0.3612409    3.4266447 
H     4.3374619    0.8181173    3.2013691 
H     3.4448307    0.5637368    1.6831177 
H     4.3912889   -0.7648129    2.3885181 
H     1.8699753    0.5066104    3.6582375 
H     2.8247519   -0.7801905    4.3990134 
C     1.6676900   -1.4104461    2.7098240 
O     1.2927232   -0.8849376    1.4394368 
C     0.4397746   -1.8313981    3.5111846 
H     2.3028359   -2.3044215    2.5409562 
H    -0.1885099   -0.9574541    3.7458844 
H     0.7347026   -2.3130584    4.4572347 
H    -0.1694440   -2.5420849    2.9321080 
H     0.7497574   -1.5473250    0.9353051 
C    -0.9068409    0.6442795   -4.1393724 
C    -1.5868251    1.8900901   -3.5732033 
H    -1.3739456    0.3401805   -5.0896834 
H    -0.9925412   -0.2026881   -3.4429388 
H     0.1619570    0.8295229   -4.3305524 
H    -2.6463137    1.6700228   -3.3488950 
H    -1.5951522    2.6916088   -4.3314336 
C    -0.9299030    2.4571910   -2.3139897 
O    -0.8918266    1.4354387   -1.3150574 
C    -1.6764313    3.6809086   -1.7886626 
H     0.1096080    2.7388695   -2.5600705 
H    -2.7181186    3.4184835   -1.5403146 
H    -1.6904461    4.4882937   -2.5384563 
H    -1.1977668    4.0730664   -0.8783872 
H    -0.1881326    1.6120267   -0.6385297 
C     1.9048118   -0.4870819   -1.7567653 
C     2.2824128    0.7798066   -2.3656626 
H     2.2310231   -1.3293391   -2.3841783 
H     2.3524597   -0.5820384   -0.7581963 
H     0.8139288   -0.5254457   -1.6406292 
N     2.5617048    1.7945008   -2.8510148 
