81
-1299.53302189377
C     2.5986893    0.2873186    4.0647064 
C     1.2387483    0.9381155    4.3279867 
H     2.8995484   -0.3377321    4.9204094 
H     3.3908684    1.0378154    3.9141965 
H     2.5699772   -0.3573018    3.1737802 
H     1.2929439    1.5721933    5.2299599 
H     0.4919878    0.1552027    4.5474826 
C     0.6853986    1.7929854    3.1833453 
O     0.4727966    0.9480119    2.0582479 
C     1.5717672    2.9801841    2.8100677 
H    -0.2955710    2.1872273    3.5167590 
H     2.5570806    2.6403979    2.4559982 
H     1.7234842    3.6466357    3.6745727 
H     1.1054772    3.5666730    2.0038576 
H    -0.0127932    1.4298563    1.3331497 
C    -3.0654143    1.3753961    1.8419963 
C    -3.1255361    1.9334834    0.4197611 
H    -3.8751502    0.6492135    2.0145044 
H    -3.1691977    2.1680564    2.6004300 
H    -2.1107238    0.8601514    2.0216272 
H    -4.0607517    2.5030702    0.2735717 
H    -3.1581353    1.0982237   -0.2998264 
C    -1.9452099    2.8359903    0.0265731 
O    -0.7199776    2.1051632    0.0133503 
C    -1.7584547    4.0458039    0.9316359 
H    -2.1329009    3.2030485   -0.9990549 
H    -1.5135811    3.7414880    1.9612025 
H    -2.6760696    4.6537406    0.9651677 
H    -0.9367253    4.6745645    0.5570062 
H    -0.7515897    1.4267726   -0.7135552 
C    -1.7989391   -1.9787311    0.9306709 
C    -1.0998822   -2.1012190    2.2841875 
H    -2.8553055   -1.6996351    1.0646828 
H    -1.7792037   -2.9242706    0.3656080 
H    -1.3362950   -1.2075817    0.2993279 
H    -1.6119870   -2.8517542    2.9120761 
H    -1.1856569   -1.1426357    2.8220586 
C     0.3883087   -2.4793725    2.2259139 
O     1.1477723   -1.5396421    1.4666358 
C     0.6492469   -3.8598289    1.6381679 
H     0.7712495   -2.4710367    3.2660544 
H     0.3035880   -3.9170060    0.5942114 
H     0.1249846   -4.6358465    2.2168875 
H     1.7267195   -4.0846613    1.6528593 
H     0.9235944   -0.6145201    1.7492383 
C     2.5168347   -1.0780803   -3.8100681 
C     1.9424191   -2.3875223   -3.2683408 
H     2.4296736   -1.0402286   -4.9071453 
H     3.5835963   -0.9609185   -3.5619577 
H     1.9820488   -0.2055335   -3.4081081 
H     2.4794575   -3.2467073   -3.7063538 
H     0.8918809   -2.4872241   -3.5917369 
C     1.9768268   -2.5402380   -1.7450363 
O     1.2065581   -1.4894203   -1.1700365 
C     3.3827641   -2.5492460   -1.1478783 
H     1.4964284   -3.5099540   -1.5031788 
H     3.9156261   -1.6127697   -1.3743724 
H     3.9740973   -3.3908419   -1.5432168 
H     3.3281474   -2.6461509   -0.0526611 
H     1.1911399   -1.5741832   -0.1778003 
C    -3.3007001   -1.2584215   -2.6234701 
C    -2.0227947   -1.1141722   -3.4493204 
H    -3.7907623   -2.2253622   -2.8188503 
H    -4.0306002   -0.4663613   -2.8546547 
H    -3.0751361   -1.2044645   -1.5480420 
H    -2.2579993   -1.1386240   -4.5283930 
H    -1.3668500   -1.9826051   -3.2605358 
C    -1.2105869    0.1575825   -3.1617246 
O    -0.7816013    0.1707707   -1.7992441 
C    -1.9620546    1.4524560   -3.4345717 
H    -0.3161550    0.1456386   -3.8125617 
H    -2.8258702    1.5602183   -2.7604674 
H    -2.3331127    1.4699203   -4.4712974 
H    -1.2880389    2.3095485   -3.2946183 
H    -0.0841639   -0.5153653   -1.6590929 
C     2.3248368    1.6347473   -0.9237920 
C     1.7152746    2.2931503   -2.0715359 
H     2.1513733    0.5491573   -0.9898333 
H     3.4071048    1.8322721   -0.8978766 
H     1.8623757    1.9959320    0.0040262 
N     1.2287819    2.7989928   -2.9937430 
