12
-265.64122584950
C    -2.0262267   -1.1337207   -0.0000000 
C    -1.6423704    0.2676791    0.0000000 
H    -2.6220178   -1.3637743    0.8933487 
H    -1.1174050   -1.7525944    0.0000000 
H    -2.6220178   -1.3637743   -0.8933487 
N    -1.3174485    1.3837742    0.0000000 
C     2.0262267    1.1337207   -0.0000000 
C     1.6423704   -0.2676791    0.0000000 
H     2.6220178    1.3637743    0.8933487 
H     1.1174050    1.7525944    0.0000000 
H     2.6220178    1.3637743   -0.8933487 
N     1.3174485   -1.3837742    0.0000000 
