12
-265.64122583362
C    -2.0193524    1.1458888   -0.0000000 
C    -1.6439537   -0.2577977    0.0000000 
H    -2.6137458    1.3795299    0.8933475 
H    -2.6137458    1.3795299   -0.8933475 
H    -1.1068095    1.7592664   -0.0000000 
N    -1.3257822   -1.3758352   -0.0000000 
C     2.0193524   -1.1458888    0.0000000 
C     1.6439537    0.2577977    0.0000000 
H     1.1068095   -1.7592664    0.0000000 
H     2.6137458   -1.3795299    0.8933475 
H     2.6137458   -1.3795299   -0.8933475 
N     1.3257822    1.3758352    0.0000000 
