18
-398.46630017860
C    -2.1176448    2.4314813    0.0003144 
C    -2.4044358    1.0084533    0.0053471 
H    -2.5471643    2.8982320   -0.8964318 
H    -2.5536186    2.9058394    0.8899327 
H    -1.0270025    2.5891803    0.0035827 
N    -2.6273022   -0.1319624    0.0094280 
C     3.1645470    0.6181936    0.0003144 
C     2.0755641    1.5780758    0.0053471 
H     3.7933400    0.7585789    0.8899327 
H     2.7557972   -0.4051799    0.0035827 
H     3.7835247    0.7567930   -0.8964318 
N     1.1993683    2.3412917    0.0094280 
C    -1.0469021   -3.0496749    0.0003144 
C     0.3288717   -2.5865291    0.0053471 
H    -1.2363604   -3.6550250   -0.8964318 
H    -1.2397214   -3.6644183    0.8899327 
H    -1.7287947   -2.1840005    0.0035827 
N     1.4279339   -2.2093292    0.0094280 
