24
-531.29750164420
C    -1.5732103    1.5732101   -1.7002438 
C    -1.6480554    1.6480546   -0.2528762 
H    -2.2796104    2.2796108   -2.1558355 
H    -1.8156911    0.5495781   -2.0180896 
H    -0.5495780    1.8156908   -2.0180888 
N    -1.6970828    1.6970832    0.9078409 
C    -1.5732102   -1.5732103    1.7002438 
C    -1.6480546   -1.6480554    0.2528762 
H    -0.5495781   -1.8156911    2.0180896 
H    -2.2796108   -2.2796104    2.1558355 
H    -1.8156908   -0.5495780    2.0180888 
N    -1.6970832   -1.6970828   -0.9078409 
C     1.5732102    1.5732103    1.7002438 
C     1.6480546    1.6480554    0.2528762 
H     0.5495781    1.8156911    2.0180896 
H     2.2796108    2.2796104    2.1558355 
H     1.8156908    0.5495780    2.0180888 
N     1.6970832    1.6970828   -0.9078409 
C     1.5732103   -1.5732101   -1.7002438 
C     1.6480554   -1.6480546   -0.2528762 
H     2.2796104   -2.2796108   -2.1558355 
H     1.8156911   -0.5495781   -2.0180896 
H     0.5495780   -1.8156908   -2.0180888 
N     1.6970828   -1.6970832    0.9078409 
