24
-531.29726502726
C    -0.7426648   -2.2070282    1.6401531 
C     0.5632885   -1.5750286    1.6368876 
H    -0.9657546   -2.5821296    0.6316400 
H    -0.7638361   -3.0345739    2.3614998 
H    -1.5014880   -1.4589056    1.9085422 
N     1.6067150   -1.0620004    1.6260967 
C     2.2070286   -0.7426648   -1.6401537 
C     1.5750290    0.5632881   -1.6368874 
H     2.5821300   -0.9657550   -0.6316412 
H     1.4589063   -1.5014877   -1.9085432 
H     3.0345739   -0.7638354   -2.3615005 
N     1.0620008    1.6067146   -1.6260959 
C    -2.2070282    0.7426642   -1.6401526 
C    -1.5750282   -0.5632885   -1.6368876 
H    -1.4589063    1.5014877   -1.9085418 
H    -3.0345740    0.7638351   -2.3614989 
H    -2.5821292    0.9657537   -0.6316395 
N    -1.0619997   -1.6067151   -1.6260974 
C     0.7426642    2.2070289    1.6401532 
C    -0.5632882    1.5750287    1.6368873 
H     1.5014874    1.4589072    1.9085428 
H     0.9657541    2.5821301    0.6316406 
H     0.7638343    3.0345744    2.3614997 
N    -1.6067148    1.0620002    1.6260965 
