30
-664.12214894179
C     0.2214264   -2.4320304    1.7196062 
C     1.6299821   -2.1753839    1.4891289 
H    -0.2349380   -1.5625360    2.2157877 
H     0.0988601   -3.3246825    2.3477139 
H    -0.2879333   -2.5826151    0.7560257 
N     2.7583117   -1.9678320    1.3030875 
C    -0.5417084    0.3364736   -2.6479854 
C    -0.8560121   -0.8644184   -1.8975909 
H    -1.3658510    1.0546335   -2.5335096 
H    -0.4131863    0.0940694   -3.7114158 
H     0.3873366    0.7850051   -2.2645258 
N    -1.1168639   -1.8213013   -1.2910832 
C     4.4531623    0.2474750   -0.3457852 
C     3.2502940    0.9304232   -0.7812624 
H     4.1665025   -0.6133699    0.2806051 
H     5.0840396    0.9314955    0.2376405 
H     5.0214355   -0.1060854   -1.2166239 
N     2.2793584    1.4694750   -1.1240718 
C    -0.4230010    2.6214258    0.5898823 
C    -0.7372694    1.5285906    1.4904415 
H     0.4680724    2.3714162   -0.0058217 
H    -0.2282487    3.5381142    1.1625152 
H    -1.2758604    2.7851106   -0.0838091 
N    -0.9985650    0.6502312    2.2058144 
C    -3.6426859   -0.7116854    0.6341744 
C    -3.4127378    0.4541380   -0.1991082 
H    -3.2094641   -1.5939773    0.1435367 
H    -4.7187162   -0.8630570    0.7914008 
H    -3.1413851   -0.5651769    1.6007076 
N    -3.2143552    1.3860744   -0.8654755 
