36
-796.95013761702
C     2.9860895   -2.3446939   -0.2723830 
C     2.8133752   -1.4721302    0.8716606 
H     3.5946213   -3.2153360    0.0071260 
H     3.4809845   -1.7867349   -1.0784675 
H     2.0037424   -2.6857289   -0.6373304 
N     2.6789850   -0.7692892    1.7881277 
C     2.8868336    2.3903513    0.7546347 
C     1.4452310    2.5197665    0.6644635 
H     3.1342665    1.5862501    1.4623281 
H     3.3343607    3.3367518    1.0856935 
H     3.2849892    2.1070529   -0.2297516 
N     0.2884967    2.6146168    0.5967430 
C    -3.0835092    2.1329906   -0.0009482 
C    -3.2773922    1.2342257   -1.1239950 
H    -3.5964515    3.0862279   -0.1877610 
H    -2.0099633    2.3217405    0.1537899 
H    -3.4895804    1.6751441    0.9102514 
N    -3.4214266    0.5165351   -2.0272230 
C    -0.0718983    0.3650453   -1.9812260 
C     1.3759289    0.4333809   -1.9466028 
H    -0.4009612   -0.3510402   -2.7439865 
H    -0.4876891    1.3527304   -2.2148097 
H    -0.4579416    0.0405606   -1.0053547 
N     2.5368712    0.4942938   -1.9149937 
C    -0.1347031    0.3256137    3.0899564 
C    -0.9440224   -0.1909525    2.0034301 
H    -0.4911039   -0.0721666    4.0496369 
H    -0.1941182    1.4217645    3.1014370 
H     0.9127653    0.0242439    2.9326642 
N    -1.5900017   -0.6052433    1.1304799 
C    -2.6694809   -2.6807679   -1.1697625 
C    -1.2399345   -2.8987435   -1.2830101 
H    -3.2180134   -3.5404730   -1.5770917 
H    -2.9562467   -1.7684295   -1.7143775 
H    -2.9293543   -2.5323280   -0.1141812 
N    -0.0937483   -3.0652285   -1.3791670 
