12
-265.47862825908
C    -2.0428121   -1.1426033   -0.0000001 
C    -1.6530696    0.2573928    0.0000002 
H    -2.6360375   -1.3659009    0.8872748 
H    -1.1449057   -1.7618744   -0.0000000 
H    -2.6360371   -1.3659006   -0.8872754 
N    -1.3280527    1.3604922    0.0000005 
C     2.0428121    1.1426033   -0.0000001 
C     1.6530696   -0.2573928    0.0000002 
H     2.6360375    1.3659009    0.8872748 
H     1.1449057    1.7618744   -0.0000000 
H     2.6360371    1.3659006   -0.8872754 
N     1.3280527   -1.3604922    0.0000005 
