18
-398.22232984584
C    -2.1336710    2.3388923    0.7884066 
C    -2.3856976    1.0295379    0.2121289 
H    -2.5090048    3.1159666    0.1214453 
H    -2.6407088    2.4243743    1.7502570 
H    -1.0597908    2.4733808    0.9324458 
N    -2.5810200   -0.0075501   -0.2439797 
C     3.1909778    0.4747610    0.4810663 
C     2.0844376    1.3765014    0.7502938 
H     3.7316088    0.2652231    1.4048488 
H     2.8074661   -0.4596415    0.0664937 
H     3.8767658    0.9323273   -0.2330035 
N     1.2059478    2.0872692    0.9619729 
C    -1.0577971   -2.8142952   -1.2686529 
C     0.3021796   -2.4047469   -0.9640819 
H    -1.1500014   -3.0309886   -2.3335985 
H    -1.3101453   -3.7119510   -0.7028666 
H    -1.7486519   -2.0121685   -1.0015410 
N     1.3771055   -2.0768921   -0.7216349 
