24
-530.97295789689
C    -1.6009479    1.6009416   -1.7026364 
C    -1.6606894    1.6606997   -0.2532658 
H    -2.3080127    2.3080042   -2.1372192 
H    -1.8464462    0.5893305   -2.0272868 
H    -0.5893410    1.8464270   -2.0273076 
N    -1.6963735    1.6963987    0.8958809 
C    -1.6009416   -1.6009479    1.7026364 
C    -1.6606997   -1.6606894    0.2532658 
H    -0.5893305   -1.8464462    2.0272868 
H    -2.3080042   -2.3080127    2.1372192 
H    -1.8464270   -0.5893410    2.0273076 
N    -1.6963987   -1.6963736   -0.8958809 
C     1.6009416    1.6009479    1.7026364 
C     1.6606997    1.6606894    0.2532658 
H     0.5893305    1.8464462    2.0272868 
H     2.3080042    2.3080127    2.1372192 
H     1.8464270    0.5893410    2.0273076 
N     1.6963987    1.6963736   -0.8958809 
C     1.6009479   -1.6009416   -1.7026364 
C     1.6606894   -1.6606997   -0.2532658 
H     2.3080127   -2.3080042   -2.1372192 
H     1.8464462   -0.5893305   -2.0272868 
H     0.5893410   -1.8464270   -2.0273076 
N     1.6963735   -1.6963987    0.8958809 
