30
-663.71622718430
C     0.2080936   -2.4561149    1.7373963 
C     1.6061226   -2.1616625    1.4807020 
H    -0.2558749   -1.6063094    2.2399490 
H     0.1253653   -3.3454983    2.3632325 
H    -0.3080932   -2.6213728    0.7906790 
N     2.7131709   -1.9273031    1.2765118 
C    -0.5489710    0.3371048   -2.6659085 
C    -0.8665047   -0.8623972   -1.9125274 
H    -1.3676760    1.0496910   -2.5595579 
H    -0.4173074    0.0902588   -3.7199627 
H     0.3713411    0.7809487   -2.2829405 
N    -1.1277784   -1.8066452   -1.3101507 
C     4.5274983    0.2549305   -0.3556435 
C     3.2948575    0.9037633   -0.7639083 
H     4.2816608   -0.6056635    0.2694264 
H     5.1452025    0.9539970    0.2092406 
H     5.0809079   -0.0767810   -1.2348874 
N     2.3145568    1.4126173   -1.0835192 
C    -0.4301838    2.6396843    0.5966444 
C    -0.7474633    1.5440677    1.4945407 
H     0.4528714    2.3898912    0.0063551 
H    -0.2337436    3.5458924    1.1706648 
H    -1.2768455    2.8085363   -0.0696831 
N    -1.0089424    0.6733241    2.1989469 
C    -3.6738212   -0.7153721    0.6372161 
C    -3.4444716    0.4513490   -0.1959205 
H    -3.2442537   -1.5907231    0.1496842 
H    -4.7428673   -0.8646357    0.7904226 
H    -3.1794794   -0.5689048    1.5977673 
N    -3.2473708    1.3733272   -0.8547701 
