36
-796.46584984229
C    -0.1467864    1.2821042   -1.8868533 
C    -0.0561622    1.5940269   -0.4734471 
H     0.7206685    1.6885679   -2.4058899 
H    -1.0697320    1.6987044   -2.2894958 
H    -0.1495157    0.1993265   -2.0119440 
N     0.0114138    1.8376296    0.6490104 
C     3.0540585   -2.2425139   -1.3511556 
C     1.6058624   -2.1578898   -1.3218054 
H     3.4511005   -1.3869704   -1.8974350 
H     3.3641099   -3.1705850   -1.8321484 
H     3.4330903   -2.2091270   -0.3292935 
N     0.4584119   -2.0843370   -1.2967867 
C    -3.2925185    2.0722755    1.4561566 
C    -3.3584166    1.9046088    0.0155750 
H    -3.4844570    1.1116177    1.9351450 
H    -4.0323203    2.8027933    1.7843048 
H    -2.2931842    2.4105490    1.7312357 
N    -3.3983755    1.7599391   -1.1247996 
C    -2.9764266   -1.6233946   -1.3952201 
C    -3.0961889   -1.4422888    0.0403662 
H    -3.2245872   -0.6857225   -1.8938595 
H    -3.6585692   -2.4046274   -1.7320114 
H    -1.9506702   -1.9072244   -1.6351647 
N    -3.1753377   -1.2886781    1.1776851 
C     0.0313227   -1.2740386    2.0913362 
C     1.4782735   -1.3125716    1.9851341 
H    -0.3110441   -0.2411594    2.0398381 
H    -0.2949630   -1.7219052    3.0296208 
H    -0.4112029   -1.8211366    1.2612330 
N     2.6242928   -1.3398655    1.8870049 
C     3.4012741    1.7996060    1.1038214 
C     3.2898636    1.3930136   -0.2853234 
H     2.4210040    2.1187128    1.4594724 
H     4.1116131    2.6214885    1.1976460 
H     3.7320009    0.9510915    1.7023678 
N     3.1920976    1.0679805   -1.3843203 
