15
-233.78522101857
C    -1.8191082    0.3778521   -0.7480876 
C    -0.2917074    0.3777319   -0.7011731 
H    -2.1955127    1.0383910   -1.5414578 
H    -2.2370190    0.7151765    0.2096761 
H    -2.2063549   -0.6337473   -0.9415673 
H     0.0864214    1.4099788   -0.5833735 
H     0.1186203    0.0114831   -1.6569431 
C     0.2830428   -0.4754380    0.4350837 
O    -0.1905930   -0.0297011    1.7205656 
C     1.8080513   -0.5320878    0.4039305 
H    -0.1208199   -1.4981851    0.3498703 
H     2.2343912    0.4811836    0.4854749 
H     2.1709599   -0.9714032   -0.5368327 
H     2.1877626   -1.1343546    1.2397805 
H     0.1718656    0.8631199    1.8650536 
