15
-233.78461064493
C    -0.0117043   -0.5126823   -1.7406844 
C    -0.1910831    0.6306287   -0.7391405 
H     0.1335226   -0.1259238   -2.7587363 
H    -0.8977510   -1.1652908   -1.7570371 
H     0.8590249   -1.1377663   -1.4982617 
H    -1.0081548    1.2918453   -1.0659439 
H     0.7240198    1.2501005   -0.7108551 
C    -0.5136288    0.1747486    0.6884071 
O    -0.8725799    1.3003096    1.5116622 
C     0.6081773   -0.6347386    1.3343647 
H    -1.4313929   -0.4363773    0.6637799 
H     1.5433361   -0.0508890    1.3534910 
H     0.8060316   -1.5658002    0.7845209 
H     0.3414858   -0.8947822    2.3670570 
H    -0.0893033    1.8766178    1.5673763 
