15
-233.78401053218
C     1.0740524    1.0919757   -0.6850449 
C    -0.3338924    0.5284584   -0.8913792 
H     1.3872651    1.6861931   -1.5542122 
H     1.8218885    0.2987250   -0.5439728 
H     1.1159649    1.7601459    0.1887674 
H    -0.3490565   -0.1186820   -1.7841818 
H    -1.0339641    1.3548338   -1.0881604 
C    -0.8869828   -0.2749044    0.2976525 
O    -1.0499151    0.5529373    1.4649283 
C    -0.0738588   -1.5265231    0.6235094 
H    -1.9159677   -0.5782402    0.0478353 
H     0.9497624   -1.2671149    0.9351668 
H     0.0012230   -2.1900534   -0.2506456 
H    -0.5470168   -2.0825649    1.4434093 
H    -0.1595021    0.7648139    1.7963278 
