15
-233.78509156912
C    -1.8854690    0.7113148   -0.2436155 
C    -0.3684462    0.8254511   -0.0934939 
H    -2.3586028    1.7031021   -0.2547808 
H    -2.3151480    0.1344948    0.5852557 
H    -2.1520798    0.2021794   -1.1823675 
H    -0.1171226    1.3658357    0.8342790 
H     0.0532089    1.4106695   -0.9264721 
C     0.3416554   -0.5248345   -0.0567518 
O    -0.1594759   -1.2244822    1.0999360 
C     1.8600395   -0.3831720    0.0050932 
H     0.0666610   -1.0899925   -0.9712435 
H     2.1535887    0.1819010    0.9015886 
H     2.2433271    0.1423664   -0.8820687 
H     2.3487420   -1.3689144    0.0439942 
H     0.2891220   -2.0859192    1.1406471 
