15
-233.78455742230
C    -0.1152162    1.5544431   -0.9903681 
C    -0.4954383    0.8636150    0.3196013 
H    -0.2790391    2.6385043   -0.9222424 
H    -0.7205161    1.1796977   -1.8298140 
H     0.9425513    1.3983450   -1.2457538 
H    -1.5331254    1.1130355    0.5888364 
H     0.1385317    1.2258748    1.1453727 
C    -0.3908026   -0.6590065    0.2683573 
O    -0.9495869   -1.1353749    1.5080507 
C     1.0376802   -1.1640908    0.0851068 
H    -1.0114895   -1.0220086   -0.5769551 
H     1.6772265   -0.8009451    0.9030340 
H     1.4635112   -0.8269122   -0.8706126 
H     1.0676277   -2.2647378    0.0850754 
H    -0.8319145   -2.1004395    1.5323113 
