15
-233.78402258125
C     1.6794779    0.1837875   -0.4385725 
C     0.4625822    1.0136960   -0.0235383 
H     2.0033683   -0.4674818    0.3837330 
H     1.4663563   -0.4497951   -1.3111618 
H     2.5205286    0.8381405   -0.7065869 
H     0.1082209    1.6230680   -0.8706229 
H     0.7504042    1.7188755    0.7715165 
C    -0.7222758    0.1972464    0.4988580 
O    -0.2787835   -0.4451700    1.7112729 
C    -1.2589012   -0.8247214   -0.5012033 
H    -1.5352764    0.9092090    0.7445956 
H    -0.4979737   -1.5810588   -0.7362635 
H    -1.5673078   -0.3349588   -1.4368356 
H    -2.1407250   -1.3427960   -0.0934223 
H    -0.9896949   -1.0380410    2.0082310 
