15
-233.78528173793
C    -1.5714960    0.6928334   -0.9014953 
C    -0.0786077    0.6063853   -0.5798387 
H    -1.7807292    1.5046595   -1.6113459 
H    -2.1711003    0.8988068   -0.0012468 
H    -1.9388797   -0.2435731   -1.3494219 
H     0.2621905    1.5425929   -0.1078618 
H     0.4936306    0.4925809   -1.5153301 
C     0.2852215   -0.5596241    0.3461780 
O    -0.3720175   -0.4520375    1.6235832 
C     1.7758002   -0.6225407    0.6377029 
H    -0.0277139   -1.5050239   -0.1441155 
H     2.1045035    0.3039259    1.1304369 
H     2.3476538   -0.7461316   -0.2923435 
H     2.0024865   -1.4656988    1.3031576 
H    -1.3309423   -0.4471550    1.4619410 
