15
-233.78473522998
C     0.6546562    0.2804676   -1.6413285 
C    -0.2281952    0.7833768   -0.4973622 
H     0.8160047    1.0671349   -2.3909980 
H     0.1926236   -0.5775157   -2.1530419 
H     1.6422153   -0.0384366   -1.2803242 
H    -1.1634575    1.1942451   -0.9179904 
H     0.2647508    1.6116674    0.0373881 
C    -0.6016823   -0.2948059    0.5263422 
O    -1.5039413    0.2322519    1.5175397 
C     0.5920659   -0.8423866    1.2927501 
H    -1.0949867   -1.1308507   -0.0119671 
H     1.1203467   -0.0257550    1.8063255 
H     1.2956141   -1.3491971    0.6192126 
H     0.2563861   -1.5651833    2.0477057 
H    -2.2424004    0.6549871    1.0457483 
