30
-467.58277385630
C    -1.0272642   -2.5124120    0.7825492 
C    -2.2081554   -1.5552189    0.6248408 
H    -1.3695380   -3.5121036    1.0833231 
H    -0.3138015   -2.1562176    1.5365079 
H    -0.4745282   -2.6142230   -0.1621657 
H    -2.7800968   -1.4893327    1.5692057 
H    -2.9139716   -1.9469555   -0.1258437 
C    -1.8122967   -0.1392251    0.2040961 
O    -0.9276287    0.4746312    1.1760995 
C    -3.0156385    0.7600951   -0.0530017 
H    -1.1916892   -0.1943797   -0.7045346 
H    -3.6496227    0.8292421    0.8452534 
H    -3.6340684    0.3618581   -0.8701499 
H    -2.6887940    1.7722091   -0.3245822 
H    -1.3740312    0.4575788    2.0417900 
C     1.5900397   -0.3118609   -2.1495997 
C     1.6796365    0.9450878   -1.2855298 
H     1.0168841   -0.1298762   -3.0699217 
H     1.1080386   -1.1278306   -1.5939232 
H     2.5913755   -0.6625406   -2.4416911 
H     0.6690572    1.3341733   -1.0689885 
H     2.2047193    1.7454533   -1.8333250 
C     2.3956256    0.7122936    0.0529531 
O     1.7681482   -0.3261643    0.8137014 
C     2.5067517    2.0017757    0.8665538 
H     3.4096107    0.3284413   -0.1556733 
H     1.5039217    2.4009804    1.0847835 
H     3.0692841    2.7735967    0.3197589 
H     3.0164812    1.8080868    1.8198651 
H     0.8515509   -0.0271627    1.0176487 
