30
-467.58160570228
C    -3.6302811   -1.0125454    0.3731747 
C    -2.9521847   -1.2324400   -0.9808610 
H    -4.6402057   -1.4439289    0.3863887 
H    -3.7464495    0.0573589    0.6089059 
H    -3.0571630   -1.4806089    1.1882620 
H    -3.5217633   -0.7302849   -1.7796498 
H    -2.9488837   -2.3081965   -1.2194130 
C    -1.5054662   -0.7402930   -1.0332597 
O    -1.4344676    0.6909679   -0.7928024 
C    -0.8416616   -0.9824893   -2.3772228 
H    -0.9250345   -1.2555817   -0.2424446 
H    -1.3957995   -0.4672796   -3.1748029 
H    -0.8231557   -2.0577776   -2.6018397 
H     0.1903973   -0.6082394   -2.3691208 
H    -1.8900107    0.8751007    0.0474767 
C     2.1373448    0.1439600    2.5756671 
C     1.6095676    0.1267487    1.1397056 
H     1.7936475   -0.7366401    3.1363785 
H     1.7900619    1.0383911    3.1156800 
H     3.2357560    0.1444036    2.6049184 
H     0.5124203    0.0131574    1.1573533 
H     2.0046828   -0.7446987    0.5916380 
C     1.9372248    1.3902117    0.3293381 
O     1.3381596    1.3407445   -0.9681402 
C     3.4307987    1.5873502    0.1109563 
H     1.5445080    2.2661442    0.8897875 
H     3.8540624    0.7155678   -0.4101524 
H     3.9625770    1.7215490    1.0624108 
H     3.6037867    2.4756243   -0.5106175 
H     0.3675316    1.2137241   -0.8577149 
