30
-467.58125709185
C    -0.8728856    2.9350396   -1.8845103 
C    -0.8237125    1.7616653   -0.9052723 
H    -0.3060987    3.7902637   -1.4926937 
H    -1.9065464    3.2719691   -2.0567095 
H    -0.4384028    2.6727447   -2.8592021 
H    -1.1791771    2.0866560    0.0847318 
H     0.2123952    1.4110998   -0.7748596 
C    -1.6809233    0.5745733   -1.3356655 
O    -1.6581267   -0.3600063   -0.2196114 
C    -1.1951076   -0.1045737   -2.6105784 
H    -2.7241293    0.9193675   -1.4713237 
H    -0.1596829   -0.4522750   -2.4865648 
H    -1.2389538    0.5859175   -3.4642735 
H    -1.8279380   -0.9704141   -2.8599931 
H    -2.1456354   -1.1570341   -0.4926599 
C     0.6484348    0.1422789    2.5869462 
C     1.9387757   -0.3842162    1.9536985 
H     0.8513701    1.0289728    3.2037449 
H     0.1765235   -0.6079053    3.2373515 
H    -0.0887169    0.4308630    1.8245779 
H     2.6287020   -0.7250874    2.7444518 
H     2.4510172    0.4320756    1.4207637 
C     1.7489185   -1.5325520    0.9470772 
O     1.0995604   -1.0883661   -0.2514922 
C     1.0342038   -2.7481837    1.5392066 
H     2.7517634   -1.8455595    0.6124469 
H     0.0048158   -2.4946531    1.8336266 
H     1.5570404   -3.1236973    2.4317892 
H     0.9879283   -3.5565914    0.7972751 
H     0.1545878   -0.8923717   -0.0522781 
