30
-467.58032689576
C    -1.5906015   -1.6507879   -2.6482102 
C    -1.1549093   -0.2768406   -2.1349359 
H    -1.6315227   -2.3796662   -1.8283403 
H    -2.5794276   -1.6193529   -3.1275317 
H    -0.8755019   -2.0241373   -3.3935903 
H    -1.1604950    0.4584874   -2.9555435 
H    -0.1188601   -0.3310913   -1.7670646 
C    -2.0149751    0.2895546   -1.0045359 
O    -1.8557981   -0.6043628    0.1316773 
C    -3.4908921    0.4462799   -1.3507236 
H    -1.6021912    1.2783737   -0.7296691 
H    -3.9480609   -0.5261747   -1.5764385 
H    -3.6143691    1.1022274   -2.2245862 
H    -4.0448833    0.9017514   -0.5153822 
H    -2.4563303   -0.3083706    0.8370185 
C     3.7092845    0.5231617    2.5795335 
C     2.9735533   -0.2734158    1.5017536 
H     4.7821480    0.2859801    2.5798042 
H     3.3186318    0.2921060    3.5825220 
H     3.6139997    1.6078911    2.4272764 
H     3.1645511   -1.3495934    1.6320730 
H     3.3518575   -0.0085896    0.5004256 
C     1.4573228   -0.0801160    1.5050739 
O     0.9273667   -1.0180432    0.5642678 
C     1.0352690    1.3491122    1.1605953 
H     1.0838348   -0.3208693    2.5237673 
H     1.4086525    1.6231076    0.1624521 
H     1.4223696    2.0736569    1.8916375 
H    -0.0610550    1.4371766    1.1548364 
H    -0.0489679   -0.8974549    0.5218376 
