30
-467.58120653813
C    -1.0100125   -0.1553532   -3.3550018 
C    -0.9070375    0.7375089   -2.1163621 
H    -0.4229281    0.2653401   -4.1821334 
H    -2.0452922   -0.2639737   -3.7086187 
H    -0.6045934   -1.1611324   -3.1649475 
H    -1.2905859    1.7445486   -2.3485949 
H     0.1501838    0.8548513   -1.8347067 
C    -1.6624581    0.2189309   -0.8850682 
O    -1.1174067   -1.0469650   -0.4239726 
C    -3.1705177    0.1030363   -1.0752146 
H    -1.4564648    0.9015586   -0.0468559 
H    -3.4198852   -0.6177903   -1.8686538 
H    -3.6026159    1.0736993   -1.3583460 
H    -3.6483620   -0.2332221   -0.1458879 
H    -1.3206811   -1.7182236   -1.0999931 
C     1.8020263    1.3218042    3.0309113 
C     1.3020794    0.8398663    1.6672543 
H     1.2831131    2.2391409    3.3428345 
H     2.8796320    1.5444353    3.0000873 
H     1.6400067    0.5691388    3.8152762 
H     1.3887837    1.6516670    0.9280445 
H     0.2307612    0.5797738    1.7309644 
C     2.0605958   -0.3716020    1.1054570 
O     1.6884260   -0.6187709   -0.2553621 
C     1.8837613   -1.6304649    1.9548686 
H     3.1340166   -0.1172303    1.0612493 
H     0.8168709   -1.8950684    2.0248412 
H     2.2697424   -1.4931684    2.9754280 
H     2.4192640   -2.4716889    1.4950337 
H     0.7295778   -0.8506463   -0.2625309 
