45
-701.38532162707
C    -2.0474720   -1.9844544   -0.6977653 
C    -2.4807258   -1.0897106   -1.8592834 
H    -2.4455585   -3.0018879   -0.8142063 
H    -2.4094414   -1.5928764    0.2630483 
H    -0.9518547   -2.0453167   -0.6427039 
H    -3.5843613   -1.0440664   -1.9259152 
H    -2.1394826   -1.5259094   -2.8120922 
C    -1.9351182    0.3356475   -1.7815217 
O    -2.3818050    1.0054948   -0.5647890 
C    -2.2995914    1.1780862   -2.9962284 
H    -0.8413205    0.2901339   -1.6638918 
H    -3.3925304    1.2301696   -3.1279495 
H    -1.8720197    0.7428690   -3.9107990 
H    -1.9143847    2.2000808   -2.8855685 
H    -3.3542619    0.9634564   -0.5370095 
C     0.7111005   -1.8404534    2.7544704 
C     0.0836812   -0.6079400    3.4071869 
H     1.5327697   -2.2355399    3.3682558 
H     1.1131588   -1.6154296    1.7578150 
H    -0.0331700   -2.6428185    2.6376322 
H     0.8407816    0.1815892    3.5483288 
H    -0.2904946   -0.8670964    4.4106203 
C    -1.0733980   -0.0058364    2.6140777 
O    -0.5340314    0.5589189    1.4045145 
C    -1.8257838    1.0648784    3.4004168 
H    -1.7761518   -0.8206454    2.3463044 
H    -1.1395802    1.8717463    3.6953622 
H    -2.2796934    0.6398979    4.3078097 
H    -2.6291928    1.5053859    2.7925060 
H    -1.2842661    0.7770824    0.7937659 
C     4.5241695    0.3744009   -1.8878390 
C     3.1327730   -0.2460853   -1.7592270 
H     5.0972741   -0.1067673   -2.6925300 
H     5.0990292    0.2586154   -0.9561741 
H     4.4745870    1.4485293   -2.1164805 
H     3.2168919   -1.3351291   -1.6210924 
H     2.5565326   -0.0922907   -2.6870858 
C     2.3108263    0.3001308   -0.5928851 
O     1.1153594   -0.4882575   -0.5300303 
C     1.9763105    1.7854189   -0.7283452 
H     2.8955639    0.1543305    0.3398499 
H     1.4423319    1.9686719   -1.6733764 
H     2.8837971    2.4064868   -0.7152789 
H     1.3328053    2.1079651    0.1020090 
H     0.5759470   -0.1614756    0.2360944 
