45
-701.39075589228
C    -2.0538655   -3.2123720   -1.9456199 
C    -1.8272645   -3.0250938   -0.4462789 
H    -1.9100622   -4.2604788   -2.2425954 
H    -1.3567549   -2.5918698   -2.5239307 
H    -3.0760119   -2.9199879   -2.2300366 
H    -0.8202624   -3.3785615   -0.1660656 
H    -2.5405607   -3.6403657    0.1268507 
C    -1.9698355   -1.5715097    0.0136859 
O    -1.0477032   -0.7173145   -0.6943069 
C    -1.8107569   -1.4219918    1.5244544 
H    -2.9646545   -1.2008884   -0.2862210 
H    -0.8285082   -1.7992880    1.8476184 
H    -2.5838394   -1.9935664    2.0580181 
H    -1.8894814   -0.3681854    1.8244683 
H    -0.1227625   -0.9105678   -0.3837152 
C     2.1078008   -3.1112172    0.7428103 
C     2.9175716   -1.9306952    1.2781668 
H     2.7379474   -4.0023182    0.6150099 
H     1.6637624   -2.8711888   -0.2324010 
H     1.2918615   -3.3769000    1.4324656 
H     3.7305546   -1.6807799    0.5767170 
H     3.3927563   -2.2019940    2.2346043 
C     2.0837465   -0.6728614    1.5043952 
O     1.5106824   -0.2974608    0.2392008 
C     2.9033797    0.4778231    2.0791537 
H     1.2656605   -0.9165943    2.2139381 
H     3.7255376    0.7375779    1.3964105 
H     3.3311706    0.2047538    3.0548894 
H     2.2749576    1.3686652    2.2222685 
H     1.0421828    0.5752328    0.3528126 
C    -1.5065648    4.2082993   -2.3920903 
C    -1.5454625    3.2205436   -1.2242404 
H    -2.5215662    4.4550878   -2.7323572 
H    -0.9618150    3.7867472   -3.2504937 
H    -1.0143647    5.1506091   -2.1136645 
H    -2.1335936    2.3345242   -1.5153172 
H    -2.0558040    3.6671424   -0.3551831 
C    -0.1637481    2.7360151   -0.7744573 
O    -0.3049471    1.7271947    0.2481056 
C     0.7096044    3.8335982   -0.1878269 
H     0.3523704    2.2918636   -1.6488380 
H     0.2126799    4.2900198    0.6807687 
H     0.9116057    4.6176415   -0.9293623 
H     1.6728296    3.4207775    0.1410787 
H    -0.8284726    0.9699346   -0.1328890 
