45
-701.39025771175
C    -1.6520549   -4.9388959    0.7509925 
C    -1.4002464   -3.6735933   -0.0697509 
H    -2.6202276   -5.3882274    0.4910820 
H    -1.6668417   -4.7180620    1.8290336 
H    -0.8791890   -5.7006697    0.5767622 
H    -2.2406895   -2.9733582    0.0588612 
H    -1.3536881   -3.9134138   -1.1447224 
C    -0.1202628   -2.9336230    0.3115375 
O    -0.1122191   -1.7066151   -0.4478289 
C     1.1532065   -3.7266579    0.0364842 
H    -0.1637700   -2.6883122    1.3914228 
H     1.2104455   -3.9958684   -1.0285397 
H     1.1867581   -4.6482185    0.6345096 
H     2.0399797   -3.1301521    0.2937633 
H     0.6958316   -1.1850113   -0.1864566 
C     1.8035450    3.1677913    0.9218685 
C     2.9139289    2.2261624    0.4560435 
H     2.2149993    4.0377912    1.4517638 
H     1.1089274    2.6628165    1.6081828 
H     1.2195996    3.5442549    0.0678862 
H     3.4984172    1.8702690    1.3202850 
H     3.6126585    2.7702489   -0.2007103 
C     2.3990498    1.0014295   -0.3048875 
O     1.5613938    0.1876334    0.5401316 
C     3.5257001    0.1082627   -0.8009343 
H     1.8026843    1.3483174   -1.1721673 
H     4.1091298   -0.2728454    0.0498150 
H     4.2012733    0.6659935   -1.4638157 
H     3.1251536   -0.7494441   -1.3583165 
H     0.6880284    0.6399461    0.6808277 
C    -3.2238711    3.6061549   -0.1542523 
C    -2.2241582    2.6822270    0.5420058 
H    -3.4101321    4.5059342    0.4478212 
H    -4.1909551    3.1036722   -0.3083062 
H    -2.8601090    3.9377399   -1.1370542 
H    -2.5741472    2.4441863    1.5580609 
H    -1.2521509    3.1892432    0.6561726 
C    -1.9934884    1.3597529   -0.1850834 
O    -1.1561662    0.5566996    0.6690638 
C    -1.3651421    1.5227321   -1.5674610 
H    -2.9699812    0.8479596   -0.2958508 
H    -0.4258441    2.0921844   -1.4954392 
H    -2.0389547    2.0558433   -2.2529794 
H    -1.1420727    0.5407823   -2.0077529 
H    -1.0343484   -0.3330603    0.2379320 
