45
-701.38933363914
C    -2.5866077   -4.1376484    0.6536283 
C    -1.7203456   -3.0422827    0.0288255 
H    -2.2765162   -5.1318954    0.3035947 
H    -3.6460108   -4.0065291    0.3850591 
H    -2.5176430   -4.1381436    1.7503222 
H    -1.7314606   -3.1343125   -1.0682580 
H    -0.6700946   -3.1661165    0.3459695 
C    -2.1618935   -1.6161455    0.3747111 
O    -1.4044677   -0.6719841   -0.4115732 
C    -2.0516274   -1.2927124    1.8630666 
H    -3.2063467   -1.4793227    0.0469324 
H    -1.0130857   -1.4169019    2.2048281 
H    -2.6968993   -1.9488826    2.4640396 
H    -2.3506701   -0.2532434    2.0537981 
H    -0.4454195   -0.7932233   -0.1719495 
C     2.6022087   -2.8337611    0.9796396 
C     2.6081840   -2.0045028   -0.3043403 
H     2.7471983   -3.9012736    0.7631561 
H     1.6508978   -2.7184949    1.5152614 
H     3.4070644   -2.5159651    1.6593425 
H     1.8201690   -2.3594054   -0.9903370 
H     3.5663038   -2.1308581   -0.8333244 
C     2.3896610   -0.5122761   -0.0670091 
O     1.1158534   -0.3724451    0.5883427 
C     2.4386735    0.2950393   -1.3599531 
H     3.1761614   -0.1446631    0.6217821 
H     1.6584220   -0.0472132   -2.0554583 
H     3.4168338    0.1863199   -1.8505447 
H     2.2784275    1.3645665   -1.1614967 
H     0.8409542    0.5798562    0.6167044 
C     0.1326367    5.3395139   -0.4828955 
C     0.3130277    3.9456370    0.1187700 
H     0.9074619    6.0275882   -0.1183109 
H    -0.8448604    5.7659738   -0.2111172 
H     0.1962634    5.3233414   -1.5800341 
H     0.3325805    4.0090924    1.2176794 
H     1.2837862    3.5205739   -0.1887268 
C    -0.7866294    2.9577790   -0.2652767 
O    -0.5718431    1.7746809    0.5255956 
C    -0.8179990    2.6269148   -1.7547906 
H    -1.7629804    3.3968438    0.0234649 
H     0.1607761    2.2517277   -2.0869769 
H    -1.0721406    3.5141217   -2.3516285 
H    -1.5686511    1.8520329   -1.9645847 
H    -1.1393530    1.0385993    0.1740724 
