45
-701.38886897674
C    -2.8988928   -3.0974829   -2.3213402 
C    -2.0264574   -2.1357093   -1.5120095 
H    -2.7030114   -2.9944901   -3.3975726 
H    -3.9688918   -2.8963182   -2.1579083 
H    -2.7116713   -4.1461573   -2.0517654 
H    -2.1605952   -1.1094596   -1.8861335 
H    -0.9593464   -2.3787931   -1.6510751 
C    -2.3293047   -2.1263595   -0.0092385 
O    -1.5796355   -1.0919238    0.6535793 
C    -2.0697344   -3.4705366    0.6671938 
H    -3.3864961   -1.8469691    0.1388775 
H    -1.0245073   -3.7808785    0.5118897 
H    -2.7227609   -4.2582506    0.2658977 
H    -2.2503975   -3.3896404    1.7469990 
H    -0.6129843   -1.2335219    0.4635468 
C     4.4392778    0.3060576    1.4546611 
C     3.1760674    0.3462379    0.5926166 
H     5.1952233    1.0087308    1.0778025 
H     4.8890441   -0.6986003    1.4517073 
H     4.2306768    0.5757300    2.4993040 
H     3.4358283    0.1723593   -0.4630551 
H     2.7168289    1.3488288    0.6443266 
C     2.1151932   -0.6889076    0.9813248 
O     1.0608052   -0.6937099   -0.0046025 
C     1.5465531   -0.4764272    2.3825062 
H     2.5623668   -1.6953767    0.9170426 
H     1.0895884    0.5213847    2.4618831 
H     2.3295616   -0.5632598    3.1489773 
H     0.7714251   -1.2233020    2.6005085 
H     0.6541123    0.2151453   -0.0046855 
C     0.7575522    4.0060493    0.4506680 
C     0.2068120    3.3583228   -0.8196783 
H     1.6391739    4.6239052    0.2307206 
H     1.0479343    3.2430658    1.1846110 
H     0.0032542    4.6524228    0.9240359 
H     0.9859223    2.7436957   -1.3022093 
H    -0.0780599    4.1341941   -1.5481489 
C    -1.0094761    2.4693277   -0.5724032 
O    -0.5987587    1.4422099    0.3486882 
C    -1.5627978    1.8690583   -1.8603549 
H    -1.7982095    3.0766867   -0.0852310 
H    -0.7985697    1.2519395   -2.3552097 
H    -1.8766812    2.6610587   -2.5557378 
H    -2.4375546    1.2356613   -1.6544970 
H    -1.2884070    0.7340020    0.4134881 
