45
-701.38910621398
C    -2.3146685   -3.4118153   -2.1327767 
C    -1.4755820   -2.9744420   -0.9305613 
H    -1.9726572   -4.3815175   -2.5195431 
H    -2.2419885   -2.6826077   -2.9541024 
H    -3.3772124   -3.5175542   -1.8726875 
H    -0.4087230   -2.9792152   -1.2083078 
H    -1.5879779   -3.6880466   -0.0980481 
C    -1.8151604   -1.5729815   -0.4124099 
O    -0.9006192   -1.1977454    0.6333490 
C    -3.2165000   -1.4577989    0.1665791 
H    -1.7143454   -0.8604000   -1.2565356 
H    -3.3386097   -2.1581890    1.0055686 
H    -3.9793156   -1.6789640   -0.5914113 
H    -3.3936714   -0.4402052    0.5412554 
H     0.0191478   -1.1842225    0.2512774 
C     5.2278272   -0.0195674    0.7449599 
C     3.8288418    0.3453049    0.2438258 
H     5.9521603    0.7686194    0.4974445 
H     5.5827306   -0.9535560    0.2830719 
H     5.2497322   -0.1565176    1.8350340 
H     3.8634858    0.5734380   -0.8326734 
H     3.4727434    1.2594090    0.7500701 
C     2.7836722   -0.7564385    0.4460639 
O     1.5625183   -0.3985314   -0.2359947 
C     2.5103411   -1.0723202    1.9146653 
H     3.1297506   -1.6700385   -0.0662574 
H     2.1562332   -0.1723674    2.4400094 
H     3.4162632   -1.4345804    2.4206149 
H     1.7372598   -1.8473215    2.0047950 
H     1.2000474    0.4229052    0.1951234 
C    -1.5854474    3.4304917   -1.6900223 
C    -1.0444862    2.2127873   -0.9379650 
H    -1.7082014    3.2093829   -2.7591515 
H    -0.8979514    4.2858136   -1.6046993 
H    -2.5641161    3.7486113   -1.3046245 
H    -0.1173965    1.8605917   -1.4166585 
H    -1.7659322    1.3802224   -1.0030933 
C    -0.7376665    2.4776752    0.5408162 
O    -0.0323950    1.3659892    1.1260348 
C    -1.9784416    2.8036500    1.3668817 
H    -0.0281011    3.3197995    0.6064661 
H    -2.7073424    1.9803728    1.3037730 
H    -2.4697399    3.7205892    1.0123774 
H    -1.7063456    2.9428869    2.4211547 
H    -0.6121601    0.5584036    1.0763119 
