60
-935.20511992539
C    -3.3522250   -0.1297809    1.9677744 
C    -2.9714464   -1.5951294    1.7531900 
H    -4.4437353   -0.0084087    2.0098072 
H    -2.9763477    0.5134332    1.1608068 
H    -2.9359468    0.2498642    2.9125239 
H    -3.4218024   -1.9791739    0.8226846 
H    -3.3791164   -2.2079829    2.5730771 
C    -1.4676387   -1.8440214    1.6861852 
O    -0.9527680   -1.1907246    0.5100780 
C    -1.1217674   -3.3295146    1.6419538 
H    -0.9942921   -1.3888528    2.5784689 
H    -1.5924661   -3.8034016    0.7684277 
H    -1.4715884   -3.8407004    2.5508779 
H    -0.0343485   -3.4706818    1.5688195 
H     0.0515035   -1.2558826    0.5191386 
C    -3.2207546   -0.4606365   -2.0840632 
C    -2.5933464    0.8349305   -2.5966621 
H    -4.2302491   -0.6003878   -2.4951104 
H    -3.3046686   -0.4592866   -0.9899088 
H    -2.6153665   -1.3346914   -2.3662119 
H    -3.1989988    1.7023440   -2.2858739 
H    -2.5851119    0.8323348   -3.6993837 
C    -1.1573953    1.0640502   -2.1205591 
O    -1.1023871    1.2085490   -0.6817500 
C    -0.5467231    2.3226179   -2.7198800 
H    -0.5449955    0.1883362   -2.4080889 
H    -1.1267884    3.2061941   -2.4154597 
H    -0.5493731    2.2676109   -3.8170631 
H     0.4897662    2.4525232   -2.3808806 
H    -1.2177985    0.3127666   -0.2505120 
C     0.9607383   -2.2996812   -2.1813456 
C     2.2161878   -1.5034510   -1.8245380 
H     0.6859289   -2.1545704   -3.2357912 
H     0.1002134   -2.0059912   -1.5654525 
H     1.1234486   -3.3773262   -2.0267722 
H     2.0697630   -0.4303377   -2.0350097 
H     3.0540856   -1.8313410   -2.4619209 
C     2.6477593   -1.6411253   -0.3590691 
O     1.6955227   -1.0323801    0.5379498 
C     4.0348167   -1.0543671   -0.1116120 
H     2.6485863   -2.7100808   -0.0855097 
H     4.0572862    0.0062096   -0.4036644 
H     4.7978048   -1.5861471   -0.6980378 
H     4.2980501   -1.1282810    0.9520105 
H     1.7143447   -0.0372833    0.3824772 
C    -0.0188272    1.7219960    2.6443790 
C     1.4352441    2.1221110    2.4008208 
H    -0.1757288    1.4193013    3.6890222 
H    -0.3136749    0.8784768    2.0068363 
H    -0.7050364    2.5543796    2.4280129 
H     2.1024277    1.2690364    2.6104678 
H     1.7252525    2.9276401    3.0957415 
C     1.7135116    2.6052096    0.9735030 
O     1.4473708    1.5685027    0.0055225 
C     3.1604918    3.0386817    0.7863079 
H     1.0438341    3.4566506    0.7494072 
H     3.8386399    2.1984030    0.9965623 
H     3.4137325    3.8621244    1.4685060 
H     3.3332955    3.3715762   -0.2455044 
H     0.4631068    1.5357676   -0.2057060 
