60
-935.20297649826
C    -0.6459248   -4.5068696   -1.7986234 
C    -0.8088036   -3.6970814   -0.5109494 
H    -0.1837205   -5.4821199   -1.5935134 
H    -0.0020839   -3.9800131   -2.5194300 
H    -1.6109747   -4.6966528   -2.2892458 
H     0.1664369   -3.6101471   -0.0059065 
H    -1.4848577   -4.2139088    0.1898320 
C    -1.3418036   -2.2796531   -0.7363727 
O    -1.3255915   -1.5463977    0.5073513 
C    -2.7663274   -2.2308279   -1.2654014 
H    -0.6733946   -1.7697933   -1.4608821 
H    -3.4491056   -2.7272573   -0.5603194 
H    -2.8430394   -2.7322589   -2.2390955 
H    -3.0926240   -1.1898342   -1.3921872 
H    -0.3703320   -1.5137172    0.8263974 
C    -0.9179762    3.8121201    1.0917740 
C    -2.3011229    3.2244238    0.8099715 
H    -0.9136312    4.9006723    0.9404864 
H    -0.1492795    3.3815681    0.4370778 
H    -0.6142030    3.6194249    2.1320306 
H    -2.6023496    3.4313198   -0.2305459 
H    -3.0494482    3.7102662    1.4565976 
C    -2.3961001    1.7182605    1.0358474 
O    -1.5649474    1.0638623    0.0562032 
C    -3.8263922    1.1984337    0.9299114 
H    -2.0030407    1.4884423    2.0463778 
H    -4.2440389    1.4317501   -0.0604757 
H    -4.4668204    1.6579808    1.6969253 
H    -3.8535530    0.1089375    1.0704305 
H    -1.5811968    0.0709598    0.2364058 
C     4.0784263   -1.3383399    2.0051669 
C     3.0427726   -0.3699756    2.5750060 
H     5.0884492   -0.9069175    2.0373044 
H     3.8453671   -1.5879604    0.9615049 
H     4.0963511   -2.2794886    2.5753455 
H     3.0786103    0.5905993    2.0334092 
H     3.2750743   -0.1425612    3.6284446 
C     1.6083239   -0.9011375    2.5014136 
O     1.2432091   -1.1701548    1.1309190 
C     0.6052445    0.0487746    3.1537791 
H     1.5620899   -1.8830955    3.0020185 
H     0.6304337    1.0313529    2.6592230 
H     0.8390349    0.1962514    4.2181946 
H    -0.4150736   -0.3520404    3.0788602 
H     1.2885204   -0.2956506    0.6292161 
C     0.8623553    1.9101595   -3.9556843 
C     0.7824229    2.1018069   -2.4401371 
H     0.3866241    2.7482181   -4.4831026 
H     0.3473735    0.9880958   -4.2658325 
H     1.9016848    1.8471278   -4.3074540 
H    -0.2681151    2.2508702   -2.1440595 
H     1.3321315    3.0073040   -2.1345296 
C     1.3253379    0.9156008   -1.6389449 
O     1.0835313    1.1202251   -0.2308439 
C     2.8198744    0.6899477   -1.8024131 
H     0.7859402    0.0022022   -1.9652939 
H     3.3741361    1.5861924   -1.4876578 
H     3.0747403    0.4677152   -2.8469135 
H     3.1493571   -0.1561597   -1.1842941 
H     0.0920187    1.2391480   -0.1033162 
