60
-935.20261199114
C    -4.7985553   -2.4387201    0.4809816 
C    -3.6247399   -1.5174880    0.8140690 
H    -5.7439649   -2.0174910    0.8490757 
H    -4.6719012   -3.4281835    0.9459219 
H    -4.9057021   -2.5898986   -0.6023127 
H    -3.5990728   -1.3187212    1.8968503 
H    -3.7533227   -0.5422722    0.3151409 
C    -2.2621178   -2.0826491    0.4183980 
O    -1.2675454   -1.2000766    0.9735301 
C    -2.0788361   -2.2273288   -1.0892027 
H    -2.1438478   -3.0763938    0.8932298 
H    -2.2112442   -1.2532310   -1.5834607 
H    -2.8061879   -2.9342068   -1.5126319 
H    -1.0724728   -2.5996560   -1.3218798 
H    -0.3506364   -1.4967435    0.6787829 
C     1.0888591    3.3392128    1.3513205 
C    -0.4232045    3.4914794    1.1832966 
H     1.6011865    4.3006688    1.2050527 
H     1.5084134    2.6240770    0.6317445 
H     1.3348063    2.9812332    2.3624507 
H    -0.6626949    3.8938015    0.1847291 
H    -0.8033080    4.2245784    1.9125905 
C    -1.2087126    2.1944890    1.3668687 
O    -0.9526995    1.3356812    0.2354681 
C    -2.7098510    2.4394235    1.4945700 
H    -0.8456986    1.6860391    2.2808184 
H    -3.0882627    2.9532815    0.5987579 
H    -2.9329600    3.0594115    2.3754241 
H    -3.2496530    1.4887463    1.6010211 
H    -1.1972184    0.3949817    0.4966848 
C     4.7598251   -1.8831898    1.5230059 
C     3.6146534   -1.6684820    0.5315285 
H     5.7264063   -1.9286525    1.0025612 
H     4.6356381   -2.8271353    2.0755973 
H     4.8209300   -1.0701957    2.2598717 
H     3.6448911   -2.4431410   -0.2502419 
H     3.7303969   -0.6974394    0.0212256 
C     2.2223729   -1.7113076    1.1674989 
O     1.2176166   -1.6841574    0.1284900 
C     1.9808632   -0.5915844    2.1777721 
H     2.0865061   -2.6869345    1.6641321 
H     2.1193234    0.3891720    1.6995929 
H     2.6762491   -0.6633766    3.0258478 
H     0.9569789   -0.6450921    2.5720104 
H     1.3399004   -0.8308531   -0.3885892 
C     0.7458606   -1.1593251   -3.3751209 
C     0.3175090    0.2998175   -3.2235296 
H    -0.0031978   -1.7375205   -3.9339685 
H     0.8841181   -1.6464077   -2.4008476 
H     1.6989935   -1.2321705   -3.9206580 
H    -0.6731761    0.3668229   -2.7431601 
H     0.2106170    0.7593452   -4.2202237 
C     1.2963814    1.1489642   -2.4045970 
O     1.3250421    0.7355473   -1.0221422 
C     0.9834606    2.6396124   -2.4975360 
H     2.3202159    0.9663556   -2.7734180 
H    -0.0372321    2.8380560   -2.1379891 
H     1.0545727    2.9893000   -3.5372912 
H     1.6858394    3.2219562   -1.8865426 
H     0.4895897    1.0679708   -0.5705689 
