60
-935.20060768746
C    -4.4587839   -1.2487543    0.7844358 
C    -2.9722984   -0.9356888    0.6059544 
H    -4.9838974   -1.2262221   -0.1802617 
H    -4.9419106   -0.5112469    1.4432154 
H    -4.6178108   -2.2435467    1.2232086 
H    -2.8584256    0.0225185    0.0765101 
H    -2.5004908   -1.7020017   -0.0306360 
C    -2.1924761   -0.8374857    1.9229469 
O    -0.8745403   -0.3043165    1.7077133 
C    -2.1014038   -2.1640494    2.6718287 
H    -2.6921080   -0.0939549    2.5677030 
H    -1.6014528   -2.9223326    2.0500445 
H    -3.0969924   -2.5436008    2.9411574 
H    -1.5185438   -2.0381181    3.5932856 
H    -0.3526884   -0.8969593    1.0855600 
C    -3.1114664    2.8500538   -1.4537550 
C    -2.1925708    2.8103157   -0.2317947 
H    -4.1163540    3.2009095   -1.1819061 
H    -3.2183909    1.8497683   -1.9014845 
H    -2.7269323    3.5228833   -2.2329151 
H    -2.6563415    2.1957999    0.5567303 
H    -2.0677577    3.8180766    0.1963998 
C    -0.8032930    2.2326750   -0.5224481 
O    -0.0876525    2.0315058    0.7124713 
C     0.0527106    3.1288374   -1.4042424 
H    -0.9316534    1.2507024   -1.0232490 
H     0.2078123    4.1009037   -0.9136012 
H    -0.4275919    3.3009200   -2.3765379 
H     1.0344576    2.6716145   -1.5844886 
H    -0.5064113    1.2423812    1.1721065 
C     1.5677551   -0.3529822   -2.8578319 
C     1.1917728   -1.7844412   -2.4707711 
H     2.2479407   -0.3470678   -3.7210192 
H     2.0672522    0.1783741   -2.0367312 
H     0.6720792    0.2230718   -3.1373418 
H     2.0898467   -2.3607066   -2.1925872 
H     0.7509570   -2.2950975   -3.3427475 
C     0.1869225   -1.8897890   -1.3209949 
O     0.7590203   -1.5164379   -0.0527159 
C    -0.3382421   -3.3094315   -1.1570759 
H    -0.6639714   -1.2111230   -1.5422162 
H     0.4970363   -4.0047889   -0.9913418 
H    -0.8909364   -3.6269303   -2.0521023 
H    -1.0130283   -3.3794090   -0.2930582 
H     1.3428681   -0.7032567   -0.1303360 
C     4.2509574   -1.3354575    0.3167031 
C     4.3466133    0.0193733    1.0180332 
H     5.2499650   -1.7564744    0.1358100 
H     3.7458217   -1.2427715   -0.6533559 
H     3.6803542   -2.0579039    0.9183845 
H     4.8724320    0.7430197    0.3728632 
H     4.9433618   -0.0759602    1.9397434 
C     2.9966176    0.6187099    1.4018259 
O     2.2087571    0.7509460    0.1969950 
C     3.1381675    1.9708840    2.0916260 
H     2.4772408   -0.0840932    2.0839354 
H     3.6615193    2.6802898    1.4337421 
H     3.7125771    1.8704941    3.0239179 
H     2.1534127    2.3910490    2.3382838 
H     1.4101883    1.3263228    0.4064119 
