60
-935.20141102817
C    -4.0598049   -1.4081886   -0.9553762 
C    -3.2695534   -2.4874537   -0.2161336 
H    -4.8248585   -1.8526676   -1.6069263 
H    -3.3960552   -0.7962216   -1.5801497 
H    -4.5726599   -0.7370410   -0.2506769 
H    -2.8064384   -3.1790243   -0.9393595 
H    -3.9466674   -3.0879283    0.4133052 
C    -2.1596286   -1.9315677    0.6745825 
O    -1.2654821   -1.1663975   -0.1574380 
C    -1.4149396   -3.0270092    1.4258780 
H    -2.6184431   -1.2455019    1.4171449 
H    -0.9782029   -3.7487126    0.7204781 
H    -2.1013052   -3.5677382    2.0928554 
H    -0.6052006   -2.6034581    2.0359404 
H    -0.3270881   -1.2076174    0.1957330 
C    -4.2242467    2.4268966   -0.0377378 
C    -3.4454467    1.8716483    1.1529761 
H    -5.3000218    2.2252759    0.0601025 
H    -3.8740529    1.9764913   -0.9754074 
H    -4.0926744    3.5162389   -0.1212281 
H    -3.6346138    0.7895316    1.2599364 
H    -3.7954520    2.3371403    2.0890407 
C    -1.9335511    2.0876223    1.0501516 
O    -1.4127172    1.5199735   -0.1708124 
C    -1.1871048    1.5544831    2.2712454 
H    -1.7391844    3.1690237    0.9502277 
H    -1.3514118    0.4726430    2.3858683 
H    -1.5388115    2.0498728    3.1878619 
H    -0.1068954    1.7278193    2.1780089 
H    -1.4920871    0.5171343   -0.1373685 
C     3.9368575   -0.1521733    1.8005968 
C     3.4557125   -1.5645104    1.4709109 
H     4.6296345   -0.1568380    2.6535069 
H     3.0925150    0.5030565    2.0541004 
H     4.4620134    0.2986154    0.9454577 
H     2.9800196   -2.0199707    2.3554159 
H     4.3143235   -2.2043001    1.2069430 
C     2.4445683   -1.6124856    0.3214194 
O     1.2610035   -0.8683118    0.6707408 
C     2.0364468   -3.0355041   -0.0316383 
H     2.9007794   -1.1407246   -0.5704545 
H     1.5934683   -3.5349592    0.8418524 
H     2.9092608   -3.6201590   -0.3540760 
H     1.2963442   -3.0372469   -0.8432459 
H     1.3679328    0.0806460    0.3530677 
C     3.8574959    2.3553295   -2.8939119 
C     3.2193636    1.9094588   -1.5780172 
H     4.9494638    2.4252722   -2.7958795 
H     3.4870277    3.3453741   -3.1998724 
H     3.6448383    1.6523681   -3.7116006 
H     3.5246125    2.5822543   -0.7621307 
H     3.5802643    0.9035937   -1.3052695 
C     1.6931082    1.8847460   -1.6077082 
O     1.2453432    1.6374861   -0.2585765 
C     1.1163867    0.8492126   -2.5705041 
H     1.3352408    2.8892829   -1.9055259 
H     1.4801948   -0.1576178   -2.3164769 
H     1.4029107    1.0699184   -3.6084475 
H     0.0194901    0.8399959   -2.5176158 
H     0.2379789    1.6829238   -0.2557833 
