75
-1168.99863264145
C     1.3769080   -0.1955886   -3.2277577 
C     1.1301729   -1.4201540   -2.3461263 
H     2.4474288    0.0497159   -3.2654285 
H     0.8545997    0.6963776   -2.8521950 
H     1.0412462   -0.3734722   -4.2615458 
H     1.4815561   -1.2488966   -1.3162163 
H     1.7080685   -2.2763076   -2.7324682 
C    -0.3344090   -1.8520304   -2.2730018 
O    -1.1683525   -0.8257211   -1.6760039 
C    -0.5233825   -3.0980715   -1.4239771 
H    -0.7160062   -2.0311575   -3.2967499 
H    -0.1176194   -2.9246743   -0.4171049 
H     0.0120155   -3.9484798   -1.8680575 
H    -1.5877234   -3.3595826   -1.3507754 
H    -1.0734836    0.0335471   -2.1510903 
C    -4.0151659    1.3950170   -2.1544605 
C    -3.4235306    2.6586912   -1.5306204 
H    -5.0292901    1.2058562   -1.7757327 
H    -3.4029671    0.5103903   -1.9335413 
H    -4.0805198    1.4898627   -3.2489339 
H    -3.3808382    2.5555403   -0.4315104 
H    -4.0812096    3.5209482   -1.7288359 
C    -2.0180531    3.0058945   -2.0329306 
O    -1.0877488    1.9366946   -1.7768257 
C    -1.4964369    4.3085302   -1.4319137 
H    -2.0424492    3.0944681   -3.1320101 
H    -1.4697467    4.2409744   -0.3331500 
H    -2.1405849    5.1574872   -1.7037467 
H    -0.4782255    4.5131046   -1.7874754 
H    -1.1433256    1.7045618   -0.8144512 
C    -3.2972923   -1.6483375    2.8085054 
C    -2.0800378   -1.1792195    2.0104464 
H    -3.1699966   -2.6889979    3.1356872 
H    -4.2146903   -1.6004093    2.2019778 
H    -3.4576222   -1.0378717    3.7081706 
H    -1.8932366   -1.8772440    1.1795478 
H    -1.1732147   -1.1960525    2.6356332 
C    -2.2373746    0.2223009    1.4175062 
O    -1.0889035    0.5281696    0.5867873 
C    -2.3360120    1.3282774    2.4551168 
H    -3.1366782    0.2399654    0.7726462 
H    -1.4502084    1.3213332    3.1067324 
H    -3.2304720    1.2013088    3.0783528 
H    -2.3988864    2.3105437    1.9666674 
H    -1.0213182   -0.1753986   -0.1310584 
C     3.2869470    2.5268617   -0.7410004 
C     2.2687757    1.5712130   -0.1182404 
H     3.4475230    2.2880532   -1.8012525 
H     4.2609720    2.4585468   -0.2325657 
H     2.9535431    3.5727258   -0.6873273 
H     2.5908200    0.5312481   -0.2760767 
H     1.2978015    1.6814486   -0.6284915 
C     2.0600208    1.7717512    1.3867520 
O     1.2613666    0.7059865    1.9396699 
C     1.4346288    3.1212134    1.7304608 
H     3.0349885    1.6850044    1.8965085 
H     0.4682301    3.2333782    1.2152994 
H     2.0815531    3.9551430    1.4240900 
H     1.2630092    3.1963408    2.8122775 
H     0.3850062    0.7065664    1.4634835 
C     1.4126888   -4.7555416    1.7181675 
C     2.5936306   -4.0263491    1.0782563 
H     1.3221645   -5.7830914    1.3384017 
H     0.4731958   -4.2276331    1.5098668 
H     1.5293682   -4.8101704    2.8112621 
H     2.4897183   -4.0252686   -0.0200542 
H     3.5339812   -4.5533125    1.3073257 
C     2.7262588   -2.5745715    1.5353659 
O     1.5434955   -1.8879639    1.1190450 
C     3.9798023   -1.9063082    0.9693865 
H     2.7878179   -2.5631331    2.6438822 
H     3.9507918   -1.9158067   -0.1303622 
H     4.8915327   -2.4268481    1.2995416 
H     4.0482203   -0.8608151    1.3026381 
H     1.5671648   -0.9605609    1.4756078 
