90
-1402.82074720016
C    -1.7107921   -2.5689661    0.5040918 
C    -1.6388416   -3.2801317   -0.8447860 
H    -1.1589664   -1.6199702    0.4897670 
H    -1.2813956   -3.1919446    1.3020469 
H    -2.7488227   -2.3395402    0.7792900 
C    -0.2152392   -3.6575060   -1.2676972 
H    -2.0743322   -2.6456678   -1.6348687 
H    -2.2422638   -4.2024116   -0.8177468 
O     0.6372721   -2.4987962   -1.3425374 
C    -0.1903635   -4.4061499   -2.5975462 
H     0.2344111   -4.2901626   -0.4825770 
H    -0.6357879   -3.7870339   -3.3903172 
H    -0.7612820   -5.3441416   -2.5330777 
H     0.8424186   -4.6455742   -2.8839058 
H     0.1748155   -1.7863537   -1.8929062 
C    -2.4637538    3.0302695   -3.3205127 
C    -3.1960004    1.7408466   -2.9499305 
H    -1.4011563    2.9656765   -3.0509477 
H    -2.8892256    3.8933251   -2.7861643 
H    -2.5335821    3.2353693   -4.3978262 
C    -3.0831587    1.3906558   -1.4681413 
H    -2.8015564    0.8921181   -3.5333556 
H    -4.2648586    1.8243851   -3.2029873 
O    -1.6881669    1.1943945   -1.1692622 
C    -3.8996353    0.1612399   -1.0838041 
H    -3.4367289    2.2589402   -0.8774537 
H    -3.5761763   -0.7088555   -1.6735558 
H    -4.9711270    0.3283515   -1.2683928 
H    -3.7632367   -0.0705485   -0.0190329 
H    -1.5777406    1.1499196   -0.1663960 
C     1.6609183    1.1856219   -1.8196107 
C     1.6830705    0.3377290   -3.0898418 
H     1.1697194    0.6547981   -0.9930744 
H     1.1178636    2.1284606   -1.9779245 
H     2.6782715    1.4328920   -1.4879767 
C     0.2916204    0.0663616   -3.6736289 
H     2.1720699   -0.6314377   -2.8922086 
H     2.2829029    0.8397180   -3.8670474 
O    -0.5591017   -0.6070939   -2.7227762 
C     0.3511190   -0.7987964   -4.9240946 
H    -0.1813609    1.0354264   -3.9189874 
H     0.7957172   -1.7764982   -4.6866455 
H     0.9648253   -0.3217481   -5.7009482 
H    -0.6566955   -0.9662478   -5.3264050 
H    -0.9560838    0.0719546   -2.0890226 
C     1.3202983    1.7618686    4.7524693 
C     0.4277549    0.5222555    4.7231058 
H     1.3431893    2.2480615    3.7685212 
H     2.3553565    1.4949566    5.0133258 
H     0.9657489    2.4947244    5.4906241 
C     0.8524838   -0.5032701    3.6759682 
H    -0.6197615    0.8052750    4.5221248 
H     0.4302692    0.0287700    5.7079675 
O     0.7492417    0.1166452    2.3797397 
C     0.0263566   -1.7834344    3.7337312 
H     1.9184425   -0.7524457    3.8432861 
H    -1.0356272   -1.5602905    3.5558092 
H     0.1238110   -2.2679323    4.7165303 
H     0.3661151   -2.4896632    2.9646786 
H     1.2061095   -0.4807002    1.7074645 
C     0.4714405    3.4464631    0.9977636 
C    -1.0385221    3.5776005    1.1846445 
H     0.7357833    2.4679681    0.5774751 
H     1.0011016    3.5497529    1.9561610 
H     0.8565292    4.2180602    0.3170161 
C    -1.6457400    2.4821534    2.0684733 
H    -1.5423613    3.5492110    0.2043260 
H    -1.2793629    4.5548515    1.6349112 
O    -1.4843014    1.1772939    1.4712903 
C    -3.1320046    2.6989481    2.3203503 
H    -1.1125159    2.4764232    3.0364075 
H    -3.6859793    2.6980545    1.3695964 
H    -3.3089835    3.6631627    2.8173216 
H    -3.5363899    1.8972205    2.9519953 
H    -0.6404674    0.7531331    1.8258257 
C     3.9581418    0.6745688    1.4194382 
C     4.1542077   -0.8421573    1.3864922 
H     2.9164184    0.9461231    1.6324461 
H     4.2360485    1.1247887    0.4547970 
H     4.5878289    1.1348060    2.1940076 
C     3.3281905   -1.5663503    0.3254019 
H     3.9075887   -1.2853082    2.3666783 
H     5.2154407   -1.0732929    1.2011917 
O     1.9398497   -1.5096950    0.7044952 
C     3.7535856   -3.0214970    0.1493130 
H     3.4503236   -1.0360639   -0.6393585 
H     3.6600625   -3.5632541    1.1020959 
H     4.7980809   -3.0856781   -0.1895960 
H     3.1190749   -3.5164105   -0.5983948 
H     1.3875598   -1.8985739   -0.0471863 
