90
-1402.81640915642
C    -0.2474390    3.2441522    3.6886411 
C     0.7239868    2.0651595    3.6595662 
H    -1.1501065    3.0193633    3.1045745 
H     0.2111014    4.1460913    3.2553714 
H    -0.5545912    3.4845844    4.7160208 
C     1.1650528    1.6726984    2.2467491 
H     0.2683082    1.1802769    4.1349628 
H     1.6263839    2.3010426    4.2469316 
O     0.0106876    1.3712502    1.4311722 
C     2.1544183    0.5125456    2.2411038 
H     1.6252291    2.5517698    1.7643068 
H     1.6997144   -0.3729233    2.7091783 
H     3.0607130    0.7744129    2.8073746 
H     2.4470460    0.2545702    1.2140734 
H    -0.4646813    0.5717352    1.8367745 
C     1.0421065    2.2374701   -3.8358286 
C    -0.3338999    2.4442669   -3.2064263 
H     1.4957910    1.2962072   -3.5006532 
H     1.7252369    3.0566983   -3.5673010 
H     0.9752417    2.2042555   -4.9321407 
C    -0.3184459    2.5386652   -1.6839311 
H    -1.0115772    1.6226074   -3.4946501 
H    -0.7894491    3.3696915   -3.5933986 
O     0.2045809    1.2937666   -1.1571338 
C    -1.6979001    2.8273119   -1.1033842 
H     0.3781630    3.3462435   -1.3881712 
H    -2.4095850    2.0409297   -1.3930448 
H    -2.0738737    3.7930161   -1.4708082 
H    -1.6556096    2.8645244   -0.0071538 
H     0.1529942    1.3291354   -0.1361500 
C     1.2734061   -2.4889130    0.1199570 
C     0.5118873   -3.4546064    1.0231489 
H     0.8140546   -1.4926423    0.1122025 
H     1.2998258   -2.8469055   -0.9193241 
H     2.3113553   -2.3560746    0.4489500 
C    -0.9444647   -3.6745938    0.6030200 
H     0.5150609   -3.0878960    2.0637148 
H     1.0151961   -4.4358418    1.0342869 
O    -1.7088484   -2.4532005    0.6792421 
C    -1.6516383   -4.6981129    1.4797728 
H    -0.9618317   -4.0206817   -0.4484974 
H    -1.6510365   -4.3628077    2.5276799 
H    -1.1440170   -5.6714101    1.4317843 
H    -2.6939174   -4.8276290    1.1599906 
H    -1.5511210   -1.8820447   -0.1308032 
C    -3.5449132    0.6952322    1.4208973 
C    -3.6018773   -0.3467290    2.5369066 
H    -2.7970662    0.4301809    0.6628033 
H    -3.2876573    1.6893379    1.8168380 
H    -4.5147122    0.7780526    0.9104638 
C    -2.3227198   -0.4261771    3.3756393 
H    -3.8005518   -1.3432803    2.1088150 
H    -4.4371058   -0.1248756    3.2214738 
O    -1.1613983   -0.6865998    2.5614880 
C    -2.4213252   -1.4711950    4.4831081 
H    -2.1338856    0.5640109    3.8269331 
H    -2.6140820   -2.4655080    4.0531947 
H    -3.2410434   -1.2343022    5.1772295 
H    -1.4833259   -1.5167309    5.0521444 
H    -1.3742813   -1.4217603    1.9017085 
C     0.4257113   -1.5508193   -3.5973047 
C    -0.9329892   -2.1829860   -3.3024454 
H     0.9115405   -1.1662486   -2.6904129 
H     0.3224171   -0.7144699   -4.3050362 
H     1.1119633   -2.2811377   -4.0481277 
C    -1.9457477   -1.2193901   -2.6771955 
H    -0.8158495   -3.0416296   -2.6193581 
H    -1.3704621   -2.5818504   -4.2328260 
O    -1.5232113   -0.7806046   -1.3725669 
C    -3.3210262   -1.8498315   -2.5079801 
H    -2.0331333   -0.3275078   -3.3272515 
H    -3.2613488   -2.7237645   -1.8427768 
H    -3.7205689   -2.1785006   -3.4770604 
H    -4.0211666   -1.1314589   -2.0621903 
H    -0.8264004   -0.0660989   -1.4272586 
C     3.3910847    3.0429295   -0.6942536 
C     4.3739282    1.8785419   -0.8028528 
H     3.7421896    3.8014409    0.0191838 
H     2.4042674    2.6997795   -0.3535433 
H     3.2535680    3.5375377   -1.6677240 
H     4.5359838    1.4242229    0.1883453 
H     5.3528255    2.2527997   -1.1462920 
C     3.9151060    0.7712549   -1.7609059 
O     2.7290027    0.1184724   -1.2968188 
C     4.9708562   -0.3143599   -1.9181508 
H     3.7218013    1.2289285   -2.7529147 
H     5.1760500   -0.7833990   -0.9445749 
H     5.9094065    0.1020974   -2.3097515 
H     4.6170594   -1.0937809   -2.6056368 
H     1.9495788    0.7220177   -1.3457122 
