90
-1402.81171747686
C    -2.8881912   -2.3557225    0.4853211 
C    -2.2713961   -2.4347849    1.8804783 
H    -3.2380480   -3.3403133    0.1467977 
H    -2.1615464   -1.9922710   -0.2540300 
H    -3.7501041   -1.6721078    0.4715718 
H    -1.4608098   -3.1823432    1.8943401 
H    -3.0260128   -2.7784700    2.6066489 
C    -1.6942550   -1.1051858    2.3755952 
O    -0.5930531   -0.6872907    1.5395000 
C    -1.1840721   -1.1855147    3.8076948 
H    -2.4812120   -0.3299680    2.3124823 
H    -0.3802394   -1.9315937    3.8826343 
H    -1.9905339   -1.4743905    4.4962823 
H    -0.7800146   -0.2156601    4.1252798 
H    -0.9123726   -0.0229109    0.8695045 
C     1.9677176   -3.2305973    2.2380712 
C     2.5993623   -3.2526231    0.8471881 
H     2.3798250   -4.0260902    2.8742294 
H     0.8812986   -3.3827954    2.1776020 
H     2.1445282   -2.2686941    2.7399636 
H     2.4004133   -4.2200797    0.3563401 
H     3.6946613   -3.1587800    0.9329585 
C     2.1031138   -2.1364543   -0.0750422 
O     0.6683440   -2.2240039   -0.2468388 
C     2.7346553   -2.2184722   -1.4569817 
H     2.3309295   -1.1547718    0.3774354 
H     2.4448041   -3.1579219   -1.9508112 
H     3.8305647   -2.1916507   -1.3868927 
H     2.4114435   -1.3781077   -2.0859003 
H     0.2255237   -1.7478874    0.5170953 
C    -3.8017401    0.4413428   -1.8943631 
C    -3.6032919    1.3083799   -0.6526507 
H    -4.8020430   -0.0125554   -1.9065003 
H    -3.0689549   -0.3761029   -1.9358128 
H    -3.6944652    1.0373471   -2.8132512 
H    -3.7435261    0.7062853    0.2606531 
H    -4.3677314    2.1017568   -0.6242251 
C    -2.2330754    1.9809904   -0.5709662 
O    -1.1719960    1.0000443   -0.4723429 
C    -2.1037221    2.8896519    0.6400522 
H    -2.0623532    2.5652716   -1.4938606 
H    -2.3238011    2.3296903    1.5615231 
H    -2.8143772    3.7240920    0.5696803 
H    -1.0879019    3.2995573    0.7299363 
H    -1.0996714    0.4094515   -1.2819763 
C    -0.9948869   -3.6827506   -2.9095582 
C    -1.3856536   -2.4302802   -3.6939420 
H    -1.7448458   -4.4762402   -3.0330516 
H    -0.8936666   -3.4773823   -1.8356686 
H    -0.0292721   -4.0787242   -3.2594711 
H    -2.3797432   -2.0730546   -3.3776566 
H    -1.4660695   -2.6730073   -4.7666457 
C    -0.3956865   -1.2714386   -3.5409880 
O    -0.3716170   -0.7689030   -2.1948805 
C    -0.7273455   -0.0967742   -4.4498229 
H     0.6192076   -1.6407562   -3.7862397 
H    -1.7328282    0.2886580   -4.2263925 
H    -0.7025819   -0.4002562   -5.5051309 
H    -0.0046206    0.7174759   -4.3048640 
H     0.0636287   -1.4116100   -1.5491889 
C     0.6875482    3.4890763   -2.2128303 
C     2.1332728    3.1185260   -1.8881030 
H     0.6243918    4.4886106   -2.6641936 
H     0.0729137    3.5015237   -1.3032529 
H     0.2395034    2.7716518   -2.9179866 
H     2.5349335    3.8100534   -1.1292767 
H     2.7610299    3.2327704   -2.7875032 
C     2.3069167    1.6848136   -1.3751593 
O     1.5473149    1.4448196   -0.1763090 
C     3.7596726    1.3783245   -1.0443979 
H     1.9448211    0.9828306   -2.1514581 
H     4.1211928    2.0630422   -0.2633083 
H     4.3958043    1.4996532   -1.9320034 
H     3.8662435    0.3503958   -0.6762877 
H     0.5830877    1.3972132   -0.3934599 
C     2.4871266    0.7498095    2.9956932 
C     1.7661355    1.8335800    3.7964353 
H     3.2071338    0.2033989    3.6218227 
H     3.0367123    1.1788793    2.1473641 
H     1.7635652    0.0300174    2.5859938 
H     2.4851059    2.5840618    4.1658846 
H     1.2924173    1.3820664    4.6852864 
C     0.6789807    2.5633536    2.9960822 
O     1.2215691    3.2771186    1.8782514 
C    -0.0688174    3.5770388    3.8513387 
H    -0.0361461    1.7989810    2.6297897 
H     0.6242750    4.3537332    4.2069699 
H    -0.5276928    3.0935525    4.7255797 
H    -0.8584676    4.0682733    3.2670120 
H     1.4687632    2.6201289    1.1811139 
