90
-1402.79365146901
C    -5.6084030    0.3348127    1.2660808 
C    -5.1003940   -0.1288134   -0.0995989 
H    -5.6820153    1.4293992    1.3090552 
H    -4.9260732    0.0368795    2.0769830 
H    -6.6064366   -0.0748089    1.4864885 
H    -4.0890825    0.2706052   -0.2765639 
H    -5.7487534    0.2733045   -0.8946195 
C    -5.0626740   -1.6509788   -0.2564291 
O    -4.2037443   -2.2672768    0.7471996 
C    -4.5231921   -2.0958084   -1.6041447 
H    -6.0832177   -2.0539508   -0.1158455 
H    -3.4930906   -1.7381499   -1.7415075 
H    -5.1393548   -1.6863778   -2.4156757 
H    -4.5219824   -3.1904120   -1.6816835 
H    -4.5805423   -2.0651369    1.6221487 
C    -1.7932739    0.4637460    3.2669615 
C    -1.3658919   -0.9728449    2.9717809 
H    -2.1981291    0.5613722    4.2838248 
H    -2.5601740    0.7995689    2.5557564 
H    -0.9371845    1.1482504    3.1790484 
H    -2.2075043   -1.6700284    3.1359564 
H    -0.5752506   -1.2837635    3.6726198 
C    -0.8394333   -1.1695328    1.5502450 
O    -1.8561534   -0.7991141    0.5803844 
C    -0.3486590   -2.5881684    1.2918553 
H    -0.0223823   -0.4531559    1.3701769 
H    -1.1586938   -3.3167355    1.4516157 
H     0.4791101   -2.8399995    1.9694189 
H     0.0139125   -2.6872858    0.2603733 
H    -2.6215862   -1.4251693    0.6676273 
C    -2.8379352    0.4738103   -4.3547046 
C    -2.0344280    0.6126079   -3.0612836 
H    -3.6500668    1.2124553   -4.3964314 
H    -3.2915360   -0.5260300   -4.4329636 
H    -2.2097226    0.6242526   -5.2435213 
H    -2.7164089    0.5538882   -2.1974257 
H    -1.5556960    1.6042425   -3.0102830 
C    -0.9523278   -0.4599749   -2.8839442 
O    -0.3793620   -0.3967564   -1.5704975 
C     0.1959528   -0.3320141   -3.8736510 
H    -1.4241556   -1.4552600   -3.0111773 
H     0.6842080    0.6474452   -3.7627754 
H    -0.1570354   -0.4296414   -4.9085925 
H     0.9454495   -1.1118209   -3.6876161 
H    -1.0698778   -0.5936769   -0.8690692 
C     0.9198859    4.7728761   -1.8540034 
C     1.0707437    3.2604131   -1.6831425 
H     1.2893376    5.0969964   -2.8365792 
H     1.4946902    5.3154004   -1.0882504 
H    -0.1288691    5.0919114   -1.7735637 
H     2.1152472    2.9646185   -1.8670552 
H     0.4558783    2.7325844   -2.4326318 
C     0.6859351    2.7450873   -0.2918530 
O     1.0401454    1.3567102   -0.1581478 
C    -0.7870289    2.9445697    0.0532952 
H     1.3057913    3.2658623    0.4576156 
H    -1.4275586    2.4409086   -0.6857185 
H    -1.0534525    4.0106058    0.0714107 
H    -1.0051126    2.5161258    1.0396748 
H     0.4991933    0.8120346   -0.8008308 
C     6.0764078    0.5953418   -1.9088891 
C     5.2673206   -0.6293811   -1.4833487 
H     7.1464840    0.3578685   -1.9906264 
H     5.9591297    1.4070164   -1.1795012 
H     5.7400544    0.9708359   -2.8879642 
H     5.6366354   -1.0138735   -0.5181858 
H     5.3909405   -1.4423013   -2.2172031 
C     3.7745606   -0.3458043   -1.3328905 
O     3.6293141    0.6567115   -0.3098826 
C     2.9765942   -1.6031430   -0.9908444 
H     3.3956499    0.0738264   -2.2873360 
H     3.3289766   -2.0231964   -0.0374560 
H     3.0998549   -2.3664664   -1.7743621 
H     1.9045663   -1.3773032   -0.9080434 
H     2.6690189    0.9300215   -0.2759350 
C     2.1666356   -2.1107563    4.8078444 
C     3.3755784   -1.5641140    4.0486800 
H     2.4805554   -2.7469134    5.6473478 
H     1.5277629   -2.7234893    4.1527213 
H     1.5430957   -1.3055770    5.2231458 
H     4.0138725   -2.3949738    3.7105856 
H     3.9985782   -0.9444426    4.7146312 
C     3.0242152   -0.7319308    2.8142544 
O     4.2525341   -0.4564849    2.1461636 
C     2.2769775    0.5593706    3.1542106 
H     2.3701298   -1.3497046    2.1601454 
H     2.9163496    1.2078001    3.7715225 
H     1.3476463    0.3562114    3.7073735 
H     2.0059790    1.0996204    2.2368647 
H     4.0429470    0.0045726    1.2911615 
