11
-10.500828158428
C          -2.63777083898164    2.20879298403342    0.00149047403067
C          -1.11434356952337    2.23787515321380    0.00178988613621
C          -3.17301264499297    0.78226933681215   -0.01344330254709
H          -3.01012680460885    2.74458614308403   -0.87461700355768
H          -3.01012090548519    2.72612510941200    0.88862657341977
H          -0.72416882342882    1.74320904617913   -0.88525712419914
H          -0.72416291654385    1.72474376038077    0.87828206390964
H          -0.74883129775706    3.26224068748347    0.01251436778490
H          -2.82797329261908    0.25568933973136   -0.90082407636690
H          -4.26068411024955    0.77914448973933   -0.01347214703061
H          -2.82796702066935    0.23722508588483    0.86271512099333
