110
-105.045541033387
C           0.45134467106051   -0.76874564907424   -1.08254051015004
C           0.12488590189819   -0.02777565393634    0.20672287207047
C          -0.19295314276617   -2.14895850402132   -1.11421599152450
H           1.53476395931577   -0.87091589145449   -1.17454186553589
H           0.09855236991995   -0.18542308414089   -1.93509457976972
H           0.49746068233408   -0.58021881007657    1.06624228502567
H          -0.95196015021292    0.08868007317832    0.31649226351181
H           0.57872097190480    0.96058092489290    0.20960251033740
H           0.16277254618561   -2.75593384845562   -0.28403573225907
H           0.04704658492647   -2.66638072406138   -2.04121828617328
H          -1.27533382619452   -2.06623052876387   -1.03897298879559
C          -0.15168134705472   -1.73324947505627    4.10217089839478
C          -0.77121859832751   -2.82735396383180    3.24134344962493
C          -1.00539218730917   -0.47147507860479    4.10871285883069
H           0.84496621269993   -1.49412072808771    3.72386620348792
H          -0.03423202004761   -2.09829579730987    5.12490272560300
H          -0.89117189217289   -2.48210632101120    2.21648716927069
H          -1.75177793566589   -3.10365143317419    3.62320614124179
H          -0.14355529906246   -3.71617860421175    3.23707082354058
H          -1.13604852371578   -0.09791819067868    3.09527406172180
H          -0.53688236149366    0.30762247329208    4.70555459909290
H          -1.98865611001458   -0.67899703427083    4.52633181925524
C          -2.71747337735612    2.74502395927692    0.94859990416676
C          -2.96905455880758    4.08664352176389    0.27250600899255
C          -3.10054336188850    2.77383053466629    2.42275766798665
H          -1.66016673935973    2.48699805536579    0.85687163358415
H          -3.29425764318795    1.96996956582953    0.43933824372413
H          -2.38968279615388    4.87077271172847    0.75567045968382
H          -4.02219358955626    4.35278606941940    0.33540166787077
H          -2.68695565742558    4.04761892563927   -0.77684576738678
H          -2.50939421481959    3.51589747737219    2.95516850484789
H          -2.92994946745168    1.80429465306141    2.88550385596882
H          -4.15210474994583    3.02946471564950    2.53739447592813
C           3.00674879651529   -2.50423320782343    1.43588694999772
C           3.90309753136868   -2.56982161197641    2.66570221453877
C           3.42467561517012   -3.51757503742150    0.37790816719152
H           3.05021986825249   -1.49923800205969    1.01217370163169
H           1.97362235322667   -2.69906688862460    1.73151056351635
H           4.93713055374186   -2.36956255471304    2.39268814782481
H           3.85561623627064   -3.55709813360148    3.12062297467654
H           3.59588584006705   -1.83504495182483    3.40680778295874
H           4.45484534343002   -3.34663080394505    0.07179775716737
H           2.78793281105289   -3.44236200489863   -0.50078023079222
H           3.35085820840385   -4.53017328971635    0.76933836701143
C           1.08001588957321    3.29263690165730   -2.03990862975594
C          -0.22077617269563    2.84993762388587   -2.69729917650350
C           0.83060568948978    4.30543960783783   -0.92927402279900
H           1.73650050740904    3.73347945616374   -2.79389148584134
H           1.59145730286956    2.41960661873083   -1.62839504322104
H          -0.73603024470312    3.70334505700225   -3.13425299910482
H          -0.87903820885818    2.39062922472914   -1.96335004117220
H          -0.02437169550355    2.12753474629520   -3.48649907730798
H           0.33336348552121    5.18890082663643   -1.32432524157493
H           1.76682503425858    4.61689547044899   -0.47053099693322
H           0.19655708714682    3.87528273126225   -0.15751390320993
C           4.27705677135193    1.10445729762415   -0.78838486599151
C           5.30681168026416    0.01420854195164   -0.52107938436777
C           4.80811187671938    2.48398531703384   -0.42039340513718
H           3.37401272341309    0.89701644640251   -0.20963711262560
H           4.00506354180940    1.09318727702811   -1.84624390277525
H           5.56848580145384   -0.01260062204306    0.53482567518611
H           6.21435818375576    0.19930221207546   -1.09237127596618
H           4.91616171799793   -0.96065780572279   -0.80329828923576
H           5.05505491988894    2.52846526293095    0.63821066512599
H           4.06678760917895    3.25086315890585   -0.63282523950356
H           5.70656058433350    2.70955301875941   -0.99109310704876
C          -3.93136480716686   -1.26156880160629    1.31514733207182
C          -4.00415737687252   -2.64650480313539    0.68475037699120
C          -5.25136756616990   -0.51180973344354    1.18898020760001
H          -3.14104834756476   -0.68457969259550    0.82998910352445
H          -3.66875373111800   -1.35802259380801    2.37042484036983
H          -4.23922703396491   -2.57273913023790   -0.37534787368131
H          -4.77851988432858   -3.24211087262574    1.16358663362589
H          -3.05609852434477   -3.16910580016572    0.79060586783098
H          -5.51664689918301   -0.37841046873466    0.14207946950403
H          -5.18179216837997    0.46890642455056    1.65369727802583
H          -6.05151165137841   -1.06600626493726    1.67524056009362
C           2.44571072950041   -0.14303009112789   -4.41332625760662
C           1.15807945584593   -0.52537539861303   -5.13221170821712
C           3.20545192160246   -1.37254457361755   -3.93124488294590
H           2.20635026443572    0.49400716834670   -3.55904876363624
H           3.08114684523126    0.43377578727953   -5.08939032746745
H           0.49880588929961   -1.07523450143965   -4.46428058200892
H           1.37411901940555   -1.15437023660947   -5.99319146119703
H           0.63274098753170    0.36106117653455   -5.48151485310022
H           2.59395067620223   -1.95034725890540   -3.24162129391246
H           4.12131078771398   -1.08428994075649   -3.42052890266146
H           3.46816366208554   -2.01152620379606   -4.77176222214657
C           2.25498944069222    2.66667675869347    2.50162658233863
C           0.87407407659383    3.04442990641195    3.02210060023844
C           2.71202552141767    1.31937798322024    3.04585189781033
H           2.97437305573698    3.43773165401408    2.78709235744305
H           2.23176709114324    2.62702065413565    1.41090571282584
H           0.88250390024736    3.11873751353877    4.10764672799789
H           0.14226701289419    2.29138840126361    2.73879520482528
H           0.55950542715815    4.00338971195443    2.61585455746511
H           2.76974202733586    1.34579780520057    4.13224707232918
H           3.69326107724287    1.05817545122907    2.65608327126106
H           2.00967417320709    0.53977142802819    2.76045681982529
C          -3.34672742302049    0.21810447248256   -2.43192413585605
C          -2.70226008317384   -0.30134907085131   -3.71037959192228
C          -4.15841968118785    1.48221995066261   -2.68358693003382
H          -2.56844771138764    0.42869965781062   -1.69562021972037
H          -3.99720205141711   -0.55425534095148   -2.01540329509578
H          -2.03588549421942    0.44859644810302   -4.13072149172951
H          -3.46252680898897   -0.53620763067922   -4.45244485527242
H          -2.12677213315934   -1.20261946704231   -3.51239584198157
H          -3.52046514049592    2.26906371443285   -3.08043465974984
H          -4.61297649740655    1.84062495176384   -1.76265400321978
H          -4.95047675280705    1.28884800327075   -3.40414537932187
