110
-105.045267031710
C           1.17120401952563    0.15650438676606   -0.29823155578878
C          -0.29453418617212   -0.25538442676132   -0.29957462010244
C           2.03933794639684   -0.84562009752313   -1.04773861694738
H           1.52098702454646    0.23519315132476    0.73324892355033
H           1.27348628946180    1.14066730814608   -0.75918224779823
H          -0.41543238664597   -1.22108216120812    0.18648559749887
H          -0.66892765439172   -0.33665637423542   -1.31833750275007
H          -0.90019831617744    0.47471232730284    0.23253325025513
H           1.96218470834775   -1.83186740949243   -0.59430486935417
H           3.08374757183343   -0.54165330028644   -1.02564904453127
H           1.72505629609782   -0.92095982592389   -2.08647615868042
C          -2.94877798159372    0.28027273992911    2.82391547837843
C          -2.15652245382783   -0.93862297758146    3.27874516256490
C          -3.91762214228232   -0.06717996121671    1.70086038547640
H          -2.25836819459980    1.05303728127605    2.48027640058790
H          -3.50570892530093    0.68935859912105    3.67010887424785
H          -1.58267395273288   -1.34623715112340    2.44987246198605
H          -2.82616009346441   -1.71436454003290    3.64505064120300
H          -1.46694627109993   -0.67517232684221    4.07747361765953
H          -3.37828092367971   -0.46487001616399    0.84423877816581
H          -4.47082310442572    0.81382504832776    1.38250099079727
H          -4.63163288143016   -0.81835395655235    2.03254200985206
C          -3.65844051672119    0.88920681793366   -2.32339099836286
C          -2.92075980762509    1.25168987722991   -3.60626310868864
C          -4.23868718345629   -0.51815200767972   -2.38412598701411
H          -4.46401389580488    1.60706233383819   -2.15316494499199
H          -2.97027286572324    0.95813250779516   -1.47819650206318
H          -3.59319955351092    1.19919793086638   -4.46005057941295
H          -2.09664966043629    0.56310168126936   -3.77949859047911
H          -2.51853749013846    2.26066326280856   -3.54906680393929
H          -4.94200411752098   -0.60467199463629   -3.20980161389353
H          -4.76160436318904   -0.75958413640962   -1.46155100298737
H          -3.44745871173628   -1.24996765642357   -2.53188039985026
C           1.57624720992288   -2.39618830246855    2.66489630586324
C           1.13248043044099   -3.19085051446984    3.88619311139558
C           3.09394574027264   -2.29788311094217    2.57608434894599
H           1.14950348496441   -1.39275004919534    2.71521912349025
H           1.19328331154538   -2.87711714273693    1.76251317476935
H           1.49617115546395   -2.72063280215864    4.79752199157431
H           1.52531074904801   -4.20472037457778    3.84520505372652
H           0.04720607527035   -3.24468905397716    3.93775805103313
H           3.49815369165505   -1.81748365901817    3.46503877727517
H           3.39291291255874   -1.71785615450234    1.70610507596019
H           3.53565244828971   -3.28910623964019    2.49605066525510
C          -0.94207881894859    3.74817548653596    0.44455741587228
C          -0.63114062655836    3.73683267595172   -1.04652038970084
C          -2.44252901473692    3.68963505118588    0.70364977236258
H          -0.53003225732908    4.65434765719431    0.89488974216478
H          -0.45634586445749    2.89381231591505    0.92173275365980
H          -1.10277974673730    4.58419137562559   -1.53980464599566
H          -1.00322851400027    2.82381738794657   -1.50504352700061
H           0.44116111564893    3.79580483357638   -1.21696176136280
H          -2.93925126759159    4.54691377974131    0.25419979035395
H          -2.65333245419540    3.69341400508453    1.77108711199491
H          -2.86868269301017    2.78609229956896    0.27303569477913
C           0.85867391882005    1.85760078992313    3.66493037065064
C          -0.23425827495246    2.67240758178616    4.34480868688021
C           1.63357362062783    1.00969005461021    4.66564260353441
H           1.54790995866308    2.53360314155446    3.15420261301264
H           0.40834773015268    1.20714059135177    2.91097031101078
H           0.19582188442385    3.33221092696066    5.09542326278515
H          -0.95019011084255    2.01659620464455    4.83576145751458
H          -0.76756383738504    3.28185869853250    3.61891467705422
H           2.08689165552083    1.64085154800426    5.42717453858741
H           2.42442541609353    0.45265478362717    4.16877545169748
H           0.97148027163603    0.30135224009202    5.15977140227828
C          -0.74854953639458   -2.48667925854401   -3.83033724095571
C           0.50567889891660   -3.32737677198562   -4.03167505336953
C          -1.61376105298787   -2.45895673109223   -5.08394622639111
H          -0.45953500883205   -1.46621633787245   -3.56825266579081
H          -1.32652953474989   -2.89403695680719   -2.99795063869050
H           1.10377682721425   -2.92876365429361   -4.84883986341090
H           0.24004841716384   -4.35406620403066   -4.27426089002179
H           1.11512350649352   -3.33563144097580   -3.13084755261462
H          -1.05680833480146   -2.04191461790268   -5.92072979005914
H          -2.50378969869629   -1.85347467058704   -4.92752697182604
H          -1.92716613228230   -3.46592592474008   -5.35134716221302
C           4.28803075616693    2.51736734113685    0.33514214668771
C           3.23535732354997    3.59616057909102    0.55741422116263
C           4.43907879260256    1.61820953891971    1.55574145686890
H           5.24780372827151    2.98839365861352    0.11077440206527
H           4.00674272177910    1.91186039560791   -0.52904980539319
H           3.49871713964883    4.21564324874537    1.41231976252887
H           2.26322071528453    3.14627279101553    0.74668600001717
H           3.15322330903494    4.23957954856855   -0.31622863299455
H           4.73758446232880    2.20123193146035    2.42451332386595
H           5.19292643310933    0.85371324838552    1.38058928455533
H           3.49659315643725    1.12586536956400    1.78307714221104
C          -1.61349668332826   -4.29487887240712    0.62100253934565
C          -0.42766392766420   -4.53313145221219   -0.30599835751874
C          -2.75144505033811   -3.57518180966449   -0.09219123263975
H          -1.29067736905282   -3.70093366954840    1.47935854980736
H          -1.97287555434683   -5.25314585855824    1.00260332009923
H          -0.04631556753934   -3.58830501093980   -0.68816543105757
H          -0.72381435564523   -5.14640397075160   -1.15441725974968
H           0.37649784899459   -5.04315493591641    0.22039972016915
H          -2.41575282140841   -2.61157801001703   -0.46941019467771
H          -3.58407155146510   -3.40506908887711    0.58627254410607
H          -3.10933948492641   -4.16585295599448   -0.93313178959582
C           1.04163897870894    1.75593338224230   -4.01442494195972
C           1.05982370520989    0.79949827675519   -5.20011413850867
C           2.45022623061993    2.14016874465738   -3.57981698535189
H           0.52157020188073    1.28651010974134   -3.17734074766853
H           0.48577675930372    2.65691331734260   -4.28316388078911
H           1.58847566319558   -0.11638030037691   -4.94287883227315
H           1.56381988638273    1.25549585556488   -6.04972366748982
H           0.04709740664505    0.54115693794226   -5.50197714379946
H           3.01414465962601    1.25574547559777   -3.29126709555663
H           2.41990351128050    2.81999387006054   -2.73127963414193
H           2.97948583515045    2.63212793459095   -4.39320642678115
