110
-105.044341789213
C          -0.04511845589391    1.68336542489706    0.12407866379537
C           0.41826212400411    0.34381269150290    0.67986030145114
C           0.54731057469817    2.84791852496374    0.90690118351018
H          -1.13541220491242    1.73593049904206    0.16815970083812
H           0.25034069813608    1.76316935999797   -0.92367623082764
H           0.12465856003938    0.24074109737009    1.72185208551278
H           1.50166738226077    0.26247523442305    0.62258160326971
H          -0.02176253343704   -0.47642594168061    0.11691782113896
H           0.24395402430852    2.79875401981972    1.95073991836825
H           0.21411912191334    3.80002901349520    0.49807045999438
H           1.63412613374338    2.81971103015959    0.86698244513008
C          -1.83626338481156   -2.97358669751124    2.03880594773522
C          -2.86003942981051   -2.46625180558956    1.03172409271099
C          -0.66995056608371   -3.67495274108384    1.35473006770369
H          -2.32138351730739   -3.66784428430297    2.72914662752630
H          -1.45931162570640   -2.13239741211317    2.62357353567176
H          -3.25037549371548   -3.28910463320439    0.43613643601802
H          -2.40626095057415   -1.74227558846593    0.35890042932247
H          -3.69318865764730   -1.98828284891792    1.54152413693436
H          -1.02434191099658   -4.51718009742808    0.76364452271056
H           0.04179107221095   -4.04547143142344    2.08887395525390
H          -0.14985864372592   -2.98737319099939    0.69187645823475
C           2.75772457622632   -2.59203834351554   -1.00197399985461
C           2.66462210193556   -3.20803512366160   -2.39206254384839
C           3.00970913138929   -3.64730051333035    0.06730222437763
H           1.82790879717604   -2.06479430340656   -0.77643349487715
H           3.56541136338489   -1.85762767007798   -0.98391874508247
H           1.85677790656798   -3.93588559420621   -2.43273385237911
H           3.59329452859704   -3.71499458523376   -2.64573780860183
H           2.47533796472290   -2.44252006076376   -3.14072655304137
H           2.21199005469848   -4.38710330419566    0.06806415727488
H           3.05557915370455   -3.19299714719227    1.05441465342258
H           3.95110564477259   -4.15985576842374   -0.11931557476830
C          -2.64107319681994    1.11659354424957    3.05472195789294
C          -3.58213571297349    0.32832245473129    3.95677391631394
C          -3.20566066565160    2.48919815540010    2.71145965143970
H          -2.46896289486004    0.55487318115055    2.13485730946508
H          -1.67767983334512    1.23856861661265    3.55636002811514
H          -4.54670161296081    0.19144331494908    3.47192324277622
H          -3.74520090484006    0.85699367406283    4.89368673884097
H          -3.16919679074536   -0.65234105921737    4.18327330910917
H          -4.15421543263080    2.38986778437809    2.18866067260842
H          -2.51881869884548    3.03957834829624    2.07291106240690
H          -3.37221635508398    3.06997604653562    3.61639765163727
C          -1.38389555241461   -0.81273020085273   -2.86487585629567
C          -0.07719520266907   -0.21653581500653   -3.37221303405401
C          -1.26354169784559   -2.31288473265330   -2.62862261452768
H          -2.17558113287445   -0.62437534113658   -3.59341997298022
H          -1.66842528262249   -0.31873762509014   -1.93263047531835
H           0.21779415595692   -0.68954167237447   -4.30704756392833
H           0.71786555165622   -0.36773941653538   -2.64542113187311
H          -0.18622470661630    0.85152416693298   -3.54871622833107
H          -0.99845382524620   -2.82269394697563   -3.55250767986163
H          -2.20382463770213   -2.72375082222872   -2.26779018231264
H          -0.49178133667741   -2.52397238952259   -1.89188370293387
C          -5.10774882170722   -0.20686309962458   -1.56087780089646
C          -5.17369494451053    0.56688748343920   -2.87165894647227
C          -4.72356033410840    0.69514819103135   -0.39531759818071
H          -4.37580839160692   -1.01214474920016   -1.65067429097807
H          -6.07943851159764   -0.66394967664518   -1.36030133066596
H          -4.21144577110901    1.02332165833344   -3.09207162053967
H          -5.91936060092719    1.35701206239782   -2.81049559305147
H          -5.43988513356039   -0.09245740022814   -3.69483766513066
H          -3.74101853801500    1.13192769585527   -0.55992014651868
H          -4.69814954889085    0.13160021470285    0.53394306499747
H          -5.44351461874970    1.50428680577447   -0.28752611012042
C           4.56372155735350   -0.22269517005807    1.83178144083832
C           4.31714692483169    1.27785631823399    1.92425050992063
C           5.72269939381685   -0.55016134193535    0.89888053626270
H           3.65876299922451   -0.71623899155168    1.47097986433042
H           4.77949392724452   -0.61570618788405    2.82783423438708
H           4.09141652192104    1.68706343264358    0.94168328966766
H           5.19784584700390    1.78644735407873    2.31094330473017
H           3.47992974579353    1.48998350437281    2.58578643803051
H           5.52175596115094   -0.17843983704543   -0.10378075370916
H           5.87730741634121   -1.62537098990333    0.84223316851696
H           6.64143463945467   -0.08907818956442    1.25546263592159
C          -2.23871865763910    3.45465289011590   -2.65880049148877
C          -0.93242050799467    4.11872950509773   -3.07548887236483
C          -2.86734249833682    4.15318935079849   -1.45982149227697
H          -2.04805392142017    2.40828018493799   -2.40977498826135
H          -2.93883243194259    3.47473658382820   -3.49733492655681
H          -0.21066774397799    4.08340723189652   -2.26245082400107
H          -1.10161196020508    5.16109995105832   -3.33692379097657
H          -0.50231701086758    3.61693587125053   -3.93991446650829
H          -2.19568269413436    4.11903423155396   -0.60478290081805
H          -3.80273289768388    3.67379126949907   -1.18168809416531
H          -3.07185102828828    5.19631488676243   -1.69156416276879
C           1.61939683488549   -1.59359321391442    3.93463741143238
C           2.53835187706272   -2.73938366093148    4.33887849125520
C           0.45295642015546   -1.44230642209420    4.90308806642236
H           1.23567007389313   -1.77671437156127    2.92913319983058
H           2.19083546868551   -0.66337567008138    3.90718018236382
H           1.99209383877152   -3.68046171441842    4.34862436971679
H           2.94366269830705   -2.57068572743231    5.33440510763067
H           3.36879670726172   -2.83233143415915    3.64238749482892
H          -0.13710779505656   -2.35599000947399    4.93434784006722
H          -0.19713250426955   -0.62401237413237    4.60071072796839
H           0.81587639857791   -1.23634685248329    5.90794718137526
C           3.57131320155169    1.38136108440666   -2.16255941070737
C           2.83789165247629    2.65637167691202   -2.55814119482062
C           3.95670888456545    0.55294148939395   -3.38150056876352
H           2.93301241147596    0.78486758761683   -1.50683148371275
H           4.47343338770089    1.64307128354561   -1.60380456680163
H           1.93252028414537    2.41603724231992   -3.11074720549032
H           3.46798660917718    3.27799310040506   -3.19081761325901
H           2.56229107623209    3.23243783740763   -1.67765741316235
H           3.06942806078666    0.27629902696212   -3.94695686889743
H           4.47259183072848   -0.35724447903878   -3.08357451585893
H           4.61456533390283    1.12168567471731   -4.03537104433364
