22
-21.003996618687
C          -0.02607865758736   -0.06936024951798    0.66466538314509
C           0.42967686722333    0.97800438589184   -0.34369495427178
C          -0.89742969056556   -1.13582333020974    0.01265601398121
H          -0.58788221480997    0.41908490076090    1.46415723993316
H           0.84870863155002   -0.54175312595906    1.11666387774156
H          -0.42823817338086    1.47940433430599   -0.78682982899747
H           1.00186290424011    0.51317338815044   -1.14408989766916
H           1.05570844838307    1.72765484498406    0.13541710544694
H          -1.78660064935208   -0.68605267558111   -0.42435998339685
H          -1.21226282708084   -1.87594629564020    0.74508947964722
H          -0.34958089400392   -1.64535114926180   -0.77703345948472
C           2.88104979174365   -2.74700903360820   -0.43909395078236
C           3.76150116942815   -1.59815327539804    0.03698275078838
C           2.55411307841265   -2.62740817071039   -1.92242985793055
H           1.95312476666642   -2.75599247884548    0.13674408427049
H           3.39210494416136   -3.69518870563286   -0.25696714751076
H           3.26267490963690   -0.64452650837317   -0.12155495423891
H           4.70157834936848   -1.58672264006762   -0.51076357994407
H           3.98366213227341   -1.69762094875798    1.09722285627971
H           2.03372772988189   -1.69326693732254   -2.12411165493108
H           1.91999285025318   -3.45038169272084   -2.24498738278196
H           3.46563958973084   -2.64314007966385   -2.51628235395443
