22
-21.003705861308
C           0.88040377497902    1.56560626891059   -0.74665092311944
C           1.75028884163368    2.81213328655430   -0.64329552163357
C          -0.23452557589676    1.74012044792166   -1.77030804898411
H           0.44453028837748    1.34680240505720    0.23061071768934
H           1.50291012105979    0.71382323220010   -1.03079134562391
H           1.15175041104727    3.66978743384142   -0.34335725232521
H           2.21042680048437    3.03606092981811   -1.60351778169766
H           2.54001191475052    2.67092456903394    0.09128696352222
H          -0.87735150244884    2.57330848092105   -1.49371779434331
H          -0.84409559338485    0.84178318604939   -1.83340604543666
H           0.18143469610853    1.94245966409969   -2.75518560607675
C          -1.10250267558330   -1.73690814179093    0.43219986974602
C           0.05920251746041   -1.83153451903831    1.41341567045386
C          -0.71953667784483   -2.26675138113302   -0.94402162822121
H          -1.41831547026208   -0.69501489637350    0.34450624216450
H          -1.95016909508162   -2.30819606229259    0.81751277886569
H           0.90861169031694   -1.25506914701371    1.05333577557087
H           0.37395785841972   -2.86625737785906    1.53188162917388
H          -0.22876693773317   -1.44665462132540    2.38917290302382
H           0.11358764749424   -1.69826155953623   -1.35166018717546
H          -1.55784571648304   -2.19111712149516   -1.63322819467483
H          -0.42152763778928   -3.31119816973656   -0.88030734297191
