33
-31.508098323739
C          -0.21288016752793    0.28467160708914   -2.71321545365151
C          -1.53865722067851   -0.39676954972651   -2.39762605385225
C           0.75138019284349   -0.66039547784026   -3.41883652006358
H           0.24128828045891    0.64007149704999   -1.78582978761446
H          -0.39549690386705    1.15659453607149   -3.34556010995090
H          -1.38021594198659   -1.26028524408372   -1.75429189420086
H          -2.01798352201674   -0.73857442438307   -3.31257440253435
H          -2.21448461536109    0.29045789887397   -1.89299086982068
H           0.95719789103405   -1.52708881011559   -2.79494381855455
H           1.69303130191762   -0.15997758845819   -3.63333946550955
H           0.32505140255395   -1.00778455980597   -4.35765609553009
C          -1.01097868948133    1.25599680018195    1.40899919536083
C           0.19338033041236    2.08983316949040    0.98965736161942
C          -0.77082962005961    0.54928879117887    2.73715315661337
H          -1.22556629847360    0.51301564921264    0.63784807238177
H          -1.88672568306427    1.90339210508093    1.49540991885499
H           1.07415377101371    1.46023505545740    0.88319420522953
H           0.40833203277411    2.85065119309064    1.73722047145123
H           0.00626395193794    2.58660134302111    0.03988569757675
H           0.08573573000812   -0.11692895038836    2.66381127561397
H          -1.63990342367695   -0.03953472879435    3.02189090392902
H          -0.57425986514971    1.27439233387575    3.52425297111526
C           2.64648368138453   -1.40361702348100    0.80079017349733
C           1.30918422278281   -2.03597015722336    0.43590532188533
C           3.29028931249666   -0.71733264115896   -0.39766023118478
H           3.32041598800322   -2.17406721008868    1.18251579384475
H           2.49741965722382   -0.67301325158869    1.59983775888735
H           1.44345934840349   -2.78564597765363   -0.34144344916034
H           0.61980940108724   -1.27966614093928    0.06820500997786
H           0.86082001153708   -2.51839250273275    1.30184843958890
H           3.47193715287833   -1.43497715604648   -1.19485784403337
H           4.24007117305780   -0.26645404942978   -0.11857716655620
H           2.64010770272843    0.06378200518738   -0.78588646654881
