33
-31.507871559558
C           1.29015918679992   -2.34793618197056    0.98064277506859
C           0.34065181050395   -1.94975289829531    2.10364827883845
C           0.55012537667334   -2.56047622781456   -0.33404525166617
H           1.81045298894838   -3.26841202989928    1.25540496689432
H           2.04333280000762   -1.56769957711377    0.85123305321889
H          -0.41191308544767   -2.72047288307087    2.25769434394709
H          -0.16829813387879   -1.01978693780612    1.86125941655284
H           0.88417660500836   -1.80925491656599    3.03525082842909
H          -0.19881250570672   -3.34270143260889   -0.22811046551560
H           1.24031406792922   -2.85063706169166   -1.12314658777103
H           0.04709301602978   -1.64596431791098   -0.64028543621781
C          -2.70029055975687    0.53410155533744    0.17421707209319
C          -2.65705235699105    1.70091154947137   -0.80449968691304
C          -2.53224994623453    1.00208554501571    1.61459819197433
H          -1.90790755329108   -0.17704027386898   -0.07177717492697
H          -3.65281206238607    0.00921411568163    0.07269543555930
H          -1.70838031973818    2.22715011489354   -0.72707626065145
H          -3.45763042161779    2.40574469481892   -0.59003953933184
H          -2.77347132208560    1.35058823384671   -1.82777420696195
H          -1.58082806917769    1.51545866625091    1.74136303438556
H          -2.56312737071143    0.15823552382756    2.30058384757950
H          -3.32865834038157    1.69233242808050    1.88450603977706
C           1.94422296776503    1.01373520924965   -1.44175034475850
C           1.42781841207353    1.51414523968892   -0.09859251167649
C           0.87182459877877    1.08897141038589   -2.52147684042306
H           2.27989650624111   -0.02030751957693   -1.33825600927963
H           2.80600051108135    1.61295141385747   -1.74473826632680
H           0.57927939610164    0.91744527384930    0.22743216962390
H           1.10870502081829    2.55189258794094   -0.17542316160406
H           2.20356394606572    1.45043628864084    0.66137741015917
H           0.01105752904483    0.48279415145821   -2.24775311222308
H           1.25720650195791    0.72674568911161   -3.47188392834941
H           0.53654137793498    2.11536204264720   -2.65606218633890
