33
-31.507740580667
C           0.71270762273597    0.62784538645435    2.71911427724840
C           2.18024661050472    0.23420619009688    2.83097912152599
C          -0.20479291906396   -0.47267448424435    3.23669355988440
H           0.47275542038967    0.83845607817268    1.67483711535181
H           0.53805517521412    1.54393209105695    3.28811879379175
H           2.37780885126573   -0.66533361560065    2.25176240488502
H           2.44295054198812    0.03666185759965    3.86815641227863
H           2.82257611172772    1.02947217729228    2.45961789716806
H          -0.04603809291551   -1.39220271535453    2.67784452841716
H          -1.24853311314097   -0.18327089423006    3.13557595522709
H          -0.00430738674017   -0.67285074043060    4.28722899060948
C           0.90345543210186    1.99197506709740   -1.47054088092339
C           2.24470928056195    2.00546950209688   -0.74793539386186
C           0.97758481866095    1.21807118396940   -2.78065184082318
H           0.58955864034489    3.01874331609697   -1.67188733069746
H           0.14735040927253    1.53923410286101   -0.82421379874276
H           3.00593036373267    2.47243792208362   -1.36933418857317
H           2.56598015416100    0.99111738593922   -0.52023908494938
H           2.17371128127535    2.56152352583559    0.18426805114429
H           1.70813035387140    1.67060820108493   -3.44789790250027
H           0.01159998862035    1.21373333018588   -3.28062876108605
H           1.27398052482899    0.18806024986325   -2.59646448991473
C          -0.75003425095571   -2.44244593118348   -0.44468511246168
C          -1.44608836292058   -1.59672051950374   -1.50356652234987
C           0.73473256061435   -2.11454185120609   -0.34867396474281
H          -0.87254852047335   -3.50064684855980   -0.68725773072152
H          -1.22364669113634   -2.26826246005833    0.52418692506668
H          -0.99917606041082   -1.76543200661126   -2.48107688840623
H          -1.35611358705370   -0.53924690530037   -1.26561932022865
H          -2.50307932644126   -1.84672848602790   -1.56149514023848
H           1.22837532679693   -2.30302838982743   -1.30014910771777
H           1.21616544299753   -2.72616287203461    0.41174961157864
H           0.87569106504882   -1.06780934310451   -0.08982927083531
