33
-31.507923588828
C          -2.29089963587881   -0.13747398992339   -0.94038412383733
C          -3.06513555181012    0.23208246682620    0.31870958940915
C          -1.77105299032104   -1.56865991992918   -0.88155195487696
H          -1.45125920746521    0.55044165800642   -1.06348563037245
H          -2.93923939438235   -0.02343346259383   -1.81213731180192
H          -2.42752347878012    0.14772218900063    1.19604377360787
H          -3.91740889442026   -0.43143953492612    0.44953181366138
H          -3.43190116599113    1.25429687524467    0.25848606345939
H          -1.11377068532316   -1.70069182147381   -0.02487974756001
H          -1.21612338366837   -1.81434460090481   -1.78467051467857
H          -2.59787715307788   -2.26949764025721   -0.78722475675891
C           1.61918333269728    0.49090110515150   -2.23470516723416
C           3.01645452761083   -0.11470980430497   -2.27836651776889
C           1.62328551816766    1.87050976097366   -1.58805915696312
H           0.95619654114962   -0.17099826670849   -1.67348765220502
H           1.22432122859884    0.56764577631893   -3.25050300406361
H           3.41884481163585   -0.21652151926465   -1.27289540798362
H           3.68854359986683    0.51920949033677   -2.85302670418515
H           2.99481292579122   -1.09943677122033   -2.74009433364426
H           1.99405806397453    1.81195560113946   -0.56706624923208
H           0.61934462970893    2.28950296747067   -1.56528431614171
H           2.26429850011951    2.55013113511127   -2.14572401542900
C           2.09225488801452   -0.60879533413361    1.88464252304247
C           1.97077749296872   -1.95252282295171    1.17653485009827
C           0.75214311613382    0.11199523053541    1.96105839637347
H           2.81090534048922    0.01815115816950    1.35155079784014
H           2.47810869081619   -0.76510230079412    2.89472451598823
H           1.61163201649829   -1.81673796485090    0.15889303829426
H           1.27166662588562   -2.59871103310758    1.70380107941887
H           2.93512838134126   -2.45401181729561    1.13464456157803
H           0.36280649389396    0.29824955483402    0.96296766055357
H           0.85641921606090    1.06679292445219    2.47196276095116
H           0.02839987422777   -0.49061758247680    2.50672335303597
