33
-31.507667566312
C          -2.03453729015778    0.74907264247905    0.21151895386205
C          -3.05422831397372   -0.26378050624507    0.71732492477745
C          -2.48757113135121    1.40035021206099   -1.08905287137071
H          -1.07646981084563    0.24949146361152    0.05309197637633
H          -1.88427238857830    1.52148707848696    0.96910266132974
H          -3.20504876780697   -1.05215388447263   -0.01740001594421
H          -4.01197396334797    0.21887889452708    0.90117695084633
H          -2.71848501008815   -0.72151389781828    1.64557107099907
H          -2.62174488643527    0.64950624654049   -1.86512922955968
H          -1.75209503779125    2.12290276551198   -1.43461529446448
H          -3.43511520053524    1.91588070907142   -0.94634348144939
C           1.69989732818417    1.65739921579133   -1.14123963975912
C           2.34985314907907    0.48820702328332   -0.41205980648785
C           1.15958261090110    1.23847002485904   -2.50286457000937
H           2.43380051696176    2.45589977750342   -1.27206833443010
H           0.88357592321179    2.05489500094865   -0.53378787574546
H           3.17754005159272    0.08912225165627   -0.99477575650406
H           1.62783346191125   -0.31035845182320   -0.25444456776821
H           2.73161837840620    0.80250745044965    0.55669278599981
H           1.96257535989122    0.85490222966063   -3.12888130045652
H           0.70148757141578    2.08308090527204   -3.01279759799975
H           0.41056222319778    0.45762329871393   -2.39116214194812
C           0.61464131152763    0.68730152116303    3.20091229709276
C           0.64945126025081   -0.81798091983505    2.96880117019809
C          -0.59982420885142    1.10207328684457    4.02211362752655
H           0.59354352443844    1.20093945728665    2.23763828839953
H           1.52493581699615    0.99463802944827    3.72102616979125
H          -0.23332236896617   -1.13801460380342    2.41952911733109
H           0.67273331660244   -1.34946532149919    3.91796867416326
H           1.53068637887092   -1.09891241147920    2.39665343570517
H          -1.51839149147059    0.81693710090768    3.51393404978500
H          -0.61169477527225    2.17903231565496    4.17481212836415
H          -0.58445020492997    0.61774774401563    4.99635185657369
