44
-42.013020504201
C           0.17226331002323    2.53701787824118   -0.83309546957834
C          -0.51789347858173    2.41567204846420   -2.18614598927165
C           1.68900001470920    2.50241605189224   -0.97096650556766
H          -0.15083236061491    1.71968753368501   -0.18468173519745
H          -0.12732238697647    3.47352761179321   -0.35655223143406
H          -0.25607861182342    1.47446767571957   -2.66555353474087
H          -0.21355884594430    3.22850193236670   -2.84236715791775
H          -1.59943194885407    2.45620955294001   -2.07308928100313
H           2.00992282666579    1.56376121393010   -1.41659006127794
H           2.16551494630979    2.60195661487021    0.00150838948823
H           2.03233455119327    3.31726182411669   -1.60515847923265
C           0.60946375805290   -1.65023190665442   -2.03679765507415
C           2.00302827764064   -1.31109263562291   -2.55097313721879
C           0.62346935090042   -2.89097749951204   -1.15302451438788
H          -0.06001665311727   -1.81553143773176   -2.88424989239122
H           0.21672497830008   -0.80561966131327   -1.46722237251485
H           2.40885395986169   -2.14034234688546   -3.12676003547762
H           2.67692280535842   -1.11130282016717   -1.72009811387467
H           1.97550417294873   -0.43231575583085   -3.19218155324465
H           0.97504788645481   -3.75441487515627   -1.71407401126637
H          -0.37410333882137   -3.10775550694956   -0.77770575204712
H           1.28493394558174   -2.74383506072538   -0.30216357436641
C          -2.45300129287803   -0.69502111913511    0.73977192085011
C          -2.90424348817514   -0.69977996074449   -0.71540607413593
C          -2.87142891741764    0.58531508735347    1.45222695279027
H          -1.36659211535917   -0.79784397714735    0.78430180831195
H          -2.88627602429931   -1.55443449337230    1.25671587677379
H          -2.46627227236654    0.13845643476828   -1.25230919762529
H          -3.98740244934384   -0.61726760266672   -0.77790753160647
H          -2.60096769822619   -1.61934659883489   -1.21039622293930
H          -2.42871710207455    1.45383170684865    0.96872390977525
H          -2.55259174277100    0.57017154087012    2.49235424275415
H          -3.95344837863454    0.69724452041760    1.42881173198211
C           1.64158192153156   -0.38839251586335    1.74017854053066
C           3.16120095328681   -0.45929043441359    1.65883958784870
C           1.17625144884630    0.70416658969250    2.69420970130849
H           1.25028933352655   -1.35165331937835    2.07665350551303
H           1.23910144044549   -0.19392695090460    0.74445599751536
H           3.58761823060532   -0.65825498897180    2.63988006454504
H           3.56708770385731    0.48205504389736    1.29415855653124
H           3.47514364662451   -1.25216878511948    0.98297800905032
H           1.55379637800362    0.52018150288526    3.69796186613824
H           0.09020697032460    0.73973593617499    2.73675413757161
H           1.53762576676385    1.67650186767834    2.36641583716910
