44
-42.012854705509
C           0.86581362736446    1.72767015161362    1.38398376508197
C           2.13964538298694    2.54253945277224    1.20052606990459
C          -0.34991188014868    2.61768268672964    1.60975163173616
H           0.98703232459611    1.05719110089107    2.23818761244892
H           0.70440608183005    1.11359630263380    0.49578991038957
H           2.33370424882583    3.15138482388699    2.08106725781337
H           2.04881378586039    3.20466670201019    0.34172156053737
H           2.99351301003648    1.88802190039533    1.04037889273095
H          -0.21254374306732    3.23209862221798    2.49709116142637
H          -1.24718605845470    2.01735684399152    1.74399319773903
H          -0.50361676292460    3.27674485615528    0.75791419718821
C           2.41301971048862   -1.28647827232808   -0.91966176255480
C           2.53467037361151   -1.72753045803168    0.53353426897417
C           1.12085603388913   -1.78754014988252   -1.55255144334600
H           3.26575200099320   -1.66729875902356   -1.48667235705680
H           2.44324439675508   -0.19557503915882   -0.97110499316408
H           2.53785263468802   -2.81338978840651    0.60279512699483
H           1.69818101998967   -1.35085079734361    1.11712045442111
H           3.45648984428324   -1.35312828547852    0.97306800264868
H           1.07115982336688   -2.87379586278840   -1.50715595734210
H           1.06188930794247   -1.48775510860753   -2.59696045672509
H           0.25863122108457   -1.38249998141667   -1.02767190788159
C          -1.44559722072299    1.47321967778591   -2.00821118275789
C          -2.07201991116976    0.49144303440084   -2.99037589300545
C          -0.09230931685918    1.97346600453511   -2.49742540257217
H          -1.32397449157002    0.98643314977620   -1.03870791665476
H          -2.11734156635835    2.32331462358141   -1.86773289661797
H          -1.42694638884636   -0.37387917763252   -3.12721281788188
H          -2.21945271029946    0.96370192796929   -3.95947535854923
H          -3.03709506342929    0.14589348229867   -2.62657583975676
H           0.59882551567244    1.14270074187123   -2.62084085403680
H           0.33839928019092    2.67535018329510   -1.78718102632466
H          -0.19605094528039    2.47685526074714   -3.45654442750178
C          -1.75451601191040   -1.40591789903318    1.54226800072693
C          -1.14638016869853   -2.78241517434882    1.78048058727265
C          -2.80562929582095   -1.43758749268281    0.43963516164390
H          -0.96400064440660   -0.70289333634003    1.27038056505414
H          -2.21017083208095   -1.04537193438778    2.46749701248878
H          -0.66905007553551   -3.14935632228104    0.87462088391662
H          -1.91673886384152   -3.49280674490306    2.07308957619048
H          -0.39926177166003   -2.74195554401213    2.57009431103833
H          -2.36682972256025   -1.77674286571531   -0.49651947447871
H          -3.22897366729968   -0.44789267242811    0.28204926571155
H          -3.61284381011907   -2.11773168243735    0.70336514757418
