44
-42.012934174808
C           0.94003587636025   -0.11620025174974    2.28892253013515
C           0.71858285338442    1.17235660898499    3.07042506972405
C           0.77512497535465   -1.34614292186288    3.17241404781578
H           1.94310931518816   -0.11133490673054    1.85609593586435
H           0.22517844254975   -0.16672710292997    1.46583457864372
H           1.43354165966034    1.25085853635569    3.88685863102082
H          -0.28436321202407    1.19339820505884    3.49145618153504
H           0.83802067100031    2.03933478264888    2.42469853749264
H           1.49643503953905   -1.33068784756511    3.98686236484374
H           0.92685689784062   -2.25706306416298    2.59721661232225
H          -0.22404750265551   -1.37360299456977    3.60219786915246
C          -2.87306728716183   -1.37631443860272    1.23700325353516
C          -3.10901551326583   -0.09599974067888    2.02864141305275
C          -3.06693078437424   -1.15569366799350   -0.25805411619650
H          -3.56425268641955   -2.14898694301730    1.58160130134316
H          -1.85849901626766   -1.73560928770916    1.42340842260957
H          -4.12329756284033    0.26622067682505    1.87331488859728
H          -2.41693207723327    0.68116703583881    1.71216118372758
H          -2.96774206927610   -0.27078233558456    3.09301622874304
H          -4.08180273318723   -0.82270515705137   -0.46591139908079
H          -2.88890111952093   -2.07580395639089   -0.81085502364670
H          -2.37958998753456   -0.39493777917936   -0.62182842172372
C           1.28819898018009   -0.81289808622695   -1.75406018888234
C           0.92441745977127   -2.09715225978861   -1.01960607400725
C           0.32441164390274   -0.52815711000287   -2.89924239608755
H           2.30379772629523   -0.89592428916186   -2.14797969737682
H           1.27512513823390    0.02287882943026   -1.05139327540807
H           0.95929484422513   -2.94700046673937   -1.69823413421635
H          -0.08081551703257   -2.03000083180461   -0.60980202956351
H           1.61783035332961   -2.28122981697233   -0.20219079741938
H           0.33989248859732   -1.34174251187197   -3.62153831511414
H           0.59746680632299    0.39071238912294   -3.41375458763799
H          -0.69221099070236   -0.42505582575505   -2.52585955478079
C          -0.83918060305102    2.51352177934803   -0.34841267037926
C          -1.99097734780507    2.68203297805087   -1.33113189304586
C           0.45002915864806    3.12796696544978   -0.87821428985220
H          -0.67731037511636    1.45020597876887   -0.15876284280150
H          -1.10190451597612    2.98356719300928    0.60235691782325
H          -1.75743359789336    2.19836303961222   -2.27750362396687
H          -2.17540835398318    3.73682440326306   -1.52369330797228
H          -2.90321432613589    2.24154036120725   -0.93466063643335
H           0.73354833948276    2.66260094489369   -1.81972867502572
H           1.26338015335842    2.98908698285033   -0.16900225147569
H           0.32198466583115    4.19482815730047   -1.04901099950405
