55
-52.517976726003
C          -2.03805976424368    1.18835126258235   -0.61129646223836
C          -2.48699644681575    2.14691165822369    0.48428391117878
C          -1.43826493321531    1.92922958852122   -1.79972511792797
H          -2.89150465445875    0.59537276990887   -0.94720764350528
H          -1.29898324227055    0.49484317780960   -0.20441802153900
H          -3.24281666590434    2.83146038563463    0.10482267954834
H          -1.64558829248780    2.73456869695411    0.84526693522239
H          -2.90912879287380    1.59974132102378    1.32402400123088
H          -2.17079923827429    2.60599167256632   -2.23479125406454
H          -1.11781706737023    1.22894009691198   -2.56767906806370
H          -0.57550936364231    2.51477752631962   -1.48865190153230
C           1.85427843329703    2.20329918536516    0.69027872530119
C           1.44631858788660    3.37278644316382    1.57748383081548
C           2.86527516016302    1.29766150827057    1.38167209538335
H           2.28352078231294    2.58488675519141   -0.23892168391814
H           0.96752624286099    1.62209366991950    0.42866255894717
H           2.31543605602775    3.97180069420195    1.84116255720788
H           0.98892769596875    3.01311074648086    2.49730635195711
H           0.73212985033202    4.01498148413379    1.06587498869538
H           3.76834371213817    1.85273683780801    1.62724063895987
H           3.13902532005836    0.46460704824527    0.73803777912399
H           2.44886363852261    0.89657326602489    2.30296837512009
C          -1.94731842220498   -2.64669197040247   -1.21886407429749
C          -1.72771695818218   -4.09721462758641   -0.80825275672264
C          -2.06955022885080   -2.49934365454195   -2.72993378303160
H          -1.11167240047522   -2.04033156867663   -0.86560346775581
H          -2.85600268280110   -2.27039638949501   -0.74349851805279
H          -0.81345135755106   -4.48536199545151   -1.25325309583908
H          -2.55729886451378   -4.71788175202848   -1.14043058178053
H          -1.64767482654939   -4.18245835547500    0.27330879939847
H          -1.16665569271935   -2.85708411713724   -3.22053036429226
H          -2.22002962541015   -1.45697476081817   -3.00190072520339
H          -2.91243959444146   -3.07715988124179   -3.10353766760303
C          -0.74672310683453   -1.45834433698142    2.48939386152988
C          -0.64069733773512   -0.10353019903166    3.17833648304135
C           0.56098325071280   -1.84799586972914    1.81169993846257
H          -1.54573334159262   -1.42455853489888    1.74519888338904
H          -1.01371289278986   -2.21978592139422    3.22604405008664
H          -0.39957846184756    0.67217012722038    2.45561871595366
H           0.13997695949924   -0.12196857819653    3.93645914115565
H          -1.57980433859454    0.15791927058292    3.66108710201740
H           0.83666802817442   -1.11047969257678    1.06170937550415
H           0.46973512219071   -2.81591828950686    1.32443624456377
H           1.36597444190549   -1.90670715085794    2.54142163695437
C           1.46529823439299   -0.67816155628668   -2.22233338334340
C           2.46084083451979    0.34399350722236   -2.75529765220772
C           2.14745549799032   -1.98133403950413   -1.82629247246430
H           0.71159652951878   -0.88207585497983   -2.98578566190506
H           0.95119894024666   -0.25921484989135   -1.35510060470052
H           2.96667746774249   -0.04073981587558   -3.63847337278790
H           3.21324364739562    0.57129818234883   -2.00307224191842
H           1.95413945289794    1.26807428421199   -3.02454143474202
H           2.65623788473793   -2.42008966964870   -2.68220487022300
H           1.41981862506369   -2.69855846914043   -1.45403545208444
H           2.88431674662030   -1.80572306875791   -1.04503144550350
