55
-52.517942251160
C          -0.81101052355585   -0.90259591573359   -1.92570685340868
C          -2.31682975110650   -1.06238730964133   -1.75939843726544
C          -0.46248517625661    0.27504668789572   -2.82690688683237
H          -0.39682529124895   -1.81901035114337   -2.35286209192369
H          -0.35190880442343   -0.75708284573633   -0.94580273692230
H          -2.79073839116784   -1.23237195061760   -2.72404149953183
H          -2.74890150076918   -0.16541282355202   -1.32112990184109
H          -2.54519939541887   -1.90559884588141   -1.11113273320477
H          -0.88595456295821    0.13366795037550   -3.81927618691151
H           0.61588329689112    0.37839069509054   -2.92424591451507
H          -0.85979846116719    1.19961246080914   -2.41425355100399
C          -1.69729354261772    2.63395805579439    0.23013335175837
C          -1.39814619799977    3.24050735955998    1.59480189160167
C          -3.14824293671128    2.85353818835212   -0.17951718951041
H          -1.48794673939725    1.56263520775682    0.25964721874962
H          -1.03828503958684    3.08261285518654   -0.51644905568108
H          -2.03867141868627    2.79940091289471    2.35557903584730
H          -1.57306186144797    4.31442511226077    1.58169036174674
H          -0.36224019499849    3.06355423115909    1.87449473802224
H          -3.82154827617562    2.38707677591337    0.53703464259573
H          -3.34198479436055    2.42631801469092   -1.16144407286262
H          -3.37620259360087    3.91667428406867   -0.21931460239141
C           2.16844319768514    1.67885643706071   -0.26460566198760
C           2.12453366051195    3.10263114176030   -0.80423222703196
C           2.88747511274381    1.60538559914149    1.07661274225434
H           2.67773267028624    1.03441514730204   -0.98420926344664
H           1.14813313542734    1.30660615973586   -0.15291389676577
H           3.13218562186458    3.48760224702496   -0.94706146580882
H           1.60474829278864    3.75787231115841   -0.10830174393171
H           1.60663745174782    3.13470631722914   -1.76035442888639
H           3.90847201253286    1.96923140981915    0.98114487453070
H           2.92200854060172    0.58119842947580    1.44106322808926
H           2.37650274548659    2.21688405658000    1.81788607285409
C           2.37960831225844   -2.42682496806753    0.10071534762135
C           1.46898872867475   -3.64843206156589    0.09571229370919
C           3.02959108316012   -2.20256261853380   -1.25845115318315
H           3.15805381931095   -2.55846478942283    0.85633428847870
H           1.79949424575267   -1.54224292754327    0.37106770649332
H           2.03134452879200   -4.54142433219956   -0.16922264155256
H           0.66687470273833   -3.52225469459819   -0.62836681845385
H           1.02496265392295   -3.80425063555368    1.07686824177564
H           3.61254685347848   -3.07352907577908   -1.55077753239834
H           3.69308162529769   -1.34120577045036   -1.22831891657518
H           2.27101538781072   -2.02682800004207   -2.01799148597593
C          -0.29470851093523   -0.30336477154530    2.70236128968140
C          -1.34652861109904   -1.23999305451189    2.12152454126021
C           0.72771392906476   -1.05403168858189    3.54617507134038
H          -0.78422270326494    0.45455520971280    3.31769241875911
H           0.21928187788390    0.21449148577147    1.89010023232779
H          -1.87550259649839   -1.75919349191530    2.91820616799395
H          -0.88145108250544   -1.98452044353281    1.47896214961109
H          -2.07402868188444   -0.68504183115665    1.53346644533315
H           0.23966918085128   -1.55486276799837    4.37980558589183
H           1.47247839538565   -0.36916357555042    3.94572204254529
H           1.23840060704461   -1.80550566419826    2.94795221797065
