55
-52.517707802878
C           0.01954696785406   -2.25372205853519    1.83280502363544
C          -1.10395159711312   -3.22103244295369    1.48164215672214
C          -0.50847518716727   -0.85372411207073    2.11992437092511
H           0.72898963123425   -2.20995384076301    1.00380954269373
H           0.55716142044356   -2.62369613190338    2.70900003892397
H          -1.63155569425610   -2.88426967098411    0.59238799529717
H          -1.81827104659758   -3.28971556795057    2.29982450532667
H          -0.70837391797999   -4.21573137527512    1.28854717417887
H          -1.02824805493196   -0.45673558437688    1.25067286658748
H           0.30643937658730   -0.17859041141271    2.37145911114488
H          -1.20643647154400   -0.87332585225064    2.95480454435918
C           3.07016642980961   -0.26518833026424   -0.14423037650024
C           3.49738660040727   -1.66771823296186   -0.55890811994569
C           3.41982474829752    0.76902712444077   -1.20708431261538
H           3.56255924306078   -0.00038155607338    0.79456570162531
H           1.99223882058463   -0.25391031183510    0.03235941608181
H           4.57139404844179   -1.70366652807816   -0.72894999671581
H           2.99627170806281   -1.96317026533665   -1.47845628950930
H           3.24936180762254   -2.39060091783921    0.21547526114591
H           4.49340526302652    0.78592174660494   -1.38269919069062
H           3.10651218273998    1.76244205149187   -0.89517912454533
H           2.92516209685984    0.53314205498609   -2.14735156149560
C          -0.23973552415615    2.98575839503279    0.82831271036714
C          -0.15827191603931    2.60551754606713   -0.64474793066564
C           1.13623638240057    3.00625406463242    1.48212622935467
H          -0.87788726207736    2.27145365133919    1.35226851007181
H          -0.69975072493499    3.97218124577961    0.92304786381128
H           0.26934527539592    1.61203187728317   -0.75871239110904
H           0.46881370716761    3.31048414718221   -1.18691809249628
H          -1.14761778435487    2.61018595522599   -1.09714616190386
H           1.60710315996761    2.02843458210551    1.40894079966465
H           1.05816348572389    3.27296898515794    2.53378252092053
H           1.78078982072869    3.73308568179546    0.99167893271461
C          -0.31267729946168   -1.22928518438035   -2.16412784285426
C          -0.26436431090413   -2.74148232892620   -2.34102366385735
C          -1.23039725892582   -0.56810062981714   -3.18440954421658
H           0.69452560524527   -0.82030812560394   -2.26727783792768
H          -0.66360038224469   -0.99669089561202   -1.15670359973950
H           0.11078964903693   -2.99810416800694   -3.32975327233386
H          -1.25875045837711   -3.16994444112260   -2.23297491324600
H           0.38644987696862   -3.19569908903334   -1.59731967542040
H          -0.89270449071549   -0.78404781417809   -4.19597117082078
H          -1.24125272181433    0.51115427078321   -3.04948810000975
H          -2.24823598459613   -0.93745098439924   -3.07819762885696
C          -3.66728401821288    0.53644721552204   -0.30456843124701
C          -4.14023062560756   -0.88546692002305   -0.02998571342168
C          -3.97716647474648    1.46719104071936    0.86100881173867
H          -4.15160532187967    0.91219347059702   -1.20884380726761
H          -2.59082205360462    0.53226376213232   -0.48687743057856
H          -5.21839272385933   -0.90758768308388    0.11443250321820
H          -3.66809895821364   -1.27634121259754    0.86871355706905
H          -3.89312817032901   -1.54120460721613   -0.86221300441267
H          -5.04892977502403    1.50434546826272    1.04453729719615
H          -3.62895485331893    2.47606814715629    0.65130411795342
H          -3.48804781944581    1.11677428873706    1.76772711202677
