66
-63.023027371047
C           0.21323557371491   -0.63028124828774    2.91140982866145
C          -0.60795047657248   -0.09471059285196    4.07731131004900
C           0.67390632189292   -2.06139089883722    3.15611125144159
H           1.08396633248719    0.01055274672992    2.75873616527837
H          -0.38762113636036   -0.59413471163774    2.00076570455214
H          -0.01388378950119   -0.08169636499810    4.98876307214333
H          -1.48071961559142   -0.72139278768552    4.24996085265824
H          -0.94875425384510    0.91811368837095    3.87468945736405
H           1.28110632686672   -2.11808625718011    4.05731288518630
H           1.26736002272572   -2.42092429548360    2.31909288652846
H          -0.18240731570466   -2.72135213138173    3.27923669313692
C          -2.85186490543463    0.75195716724503    0.51951930391831
C          -3.66890798646742    1.40158013185953   -0.59016537281284
C          -3.67752331916559   -0.25659885038232    1.30784813570406
H          -2.47883800185081    1.52336862291582    1.19668952142045
H          -1.98597923458174    0.24964512931093    0.08309124319244
H          -4.52370605529600    1.93104802185164   -0.17444959398867
H          -4.03982006499286    0.64735767764521   -1.28148619406085
H          -3.06522628478188    2.11159643224393   -1.15108688797917
H          -4.53843032914025    0.22892929804972    1.76275560960414
H          -3.08104547464647   -0.70634328503726    2.09783615703755
H          -4.03783663299775   -1.04792721862272    0.65364384675103
C           0.65240514334846    2.66704602563663    0.96146242510288
C           2.16137763215146    2.85574627493995    1.04995394496193
C          -0.01690039546238    3.82019418062853    0.22458491345288
H           0.23810520875798    2.59021222654746    1.96899983303868
H           0.43424227324269    1.73145848551002    0.44313401804486
H           2.40078141264661    3.76591855124370    1.59583612555135
H           2.59488507702886    2.93228166005395    0.05490870925211
H           2.62551109473641    2.01542665761288    1.56106498285787
H           0.17387189604637    4.76154141696496    0.73581556871186
H          -1.09313371308861    3.67048917913664    0.17277659432897
H           0.36952786789913    3.89834630611495   -0.78947803094694
C          -1.08697386071128   -2.90363774223003   -0.23642176385364
C          -1.83838455711664   -2.69024006151150   -1.54439138224377
C          -0.50219197162246   -4.30730461569673   -0.14671418840588
H          -1.76598430877419   -2.73960470195475    0.60280804489829
H          -0.27997930005935   -2.17206574225576   -0.15554231471029
H          -2.65365785751277   -3.40520412806730   -1.63532433054428
H          -1.17246756106865   -2.82443486956498   -2.39459608146900
H          -2.25560697837605   -1.68706073355097   -1.59041146442094
H          -1.29196174199163   -5.05318985818435   -0.20908845182854
H           0.02473373786614   -4.44517148218955    0.79495035373334
H           0.19675414025619   -4.48142649896618   -0.96218703987698
C           2.99038400862674   -2.31035820658507   -0.61241446011268
C           2.88786478889043   -0.90474891083793   -0.03378024540052
C           2.56180609952226   -2.35171094903973   -2.07373585552593
H           2.36143661744071   -2.98936176870970   -0.03233951118263
H           4.02120040377530   -2.66220234270982   -0.52744172197906
H           1.86286571834543   -0.54390568515848   -0.08326172557611
H           3.51887705376074   -0.21653145866891   -0.59205116363259
H           3.20433060174438   -0.89357198108779    1.00687267628883
H           1.53056686971129   -2.02239880409067   -2.17773055814057
H           2.64221760925480   -3.36181039572014   -2.46987103934515
H           3.19160123260763   -1.69735061800644   -2.67287134492035
C          -0.15107262622524    0.85873143863158   -2.54504550794929
C           1.24305052894676    1.34154609049136   -2.92322959007993
C          -0.99459979529316    0.54919399939036   -3.77489436888134
H          -0.64968225332708    1.62437825999297   -1.94748503468318
H          -0.06816927536146   -0.04020354992471   -1.93008196906891
H           1.18256060887462    2.25281852723022   -3.51504523569089
H           1.76070301169490    0.58656018898667   -3.51096288505169
H           1.83216984956963    1.54685405123008   -2.03274385398249
H          -1.09905628589067    1.43537749423543   -4.39748155617981
H          -1.98837210117073    0.21440135553796   -3.48653276675512
H          -0.52806959537214   -0.23307934621214   -4.37022416466857
