77
-73.528144823016
C           0.51700475645421    2.64087699900506    0.43069014371321
C          -0.14072224780650    3.51277174778387   -0.63083119735957
C           1.28820961246432    3.47604277404847    1.44441608521496
H           1.19868574900675    1.93613541847957   -0.04940521013872
H          -0.24951927642243    2.06030783167512    0.94827888274787
H           0.61039520465208    4.08479716795855   -1.17138598737988
H          -0.83747438402498    4.21111571121138   -0.17210140973219
H          -0.68772048198595    2.90263834002505   -1.34613397750669
H           2.07473702809496    4.04291239666578    0.95061859096087
H           1.74639277491772    2.84067585871945    2.19885684582295
H           0.62413058587449    4.17878656750839    1.94359690032391
C          -3.44567661479658    2.71156085946039    1.61773171765887
C          -3.77380207629169    1.38378638579919    2.28857655269557
C          -2.70818852769565    3.65056453345123    2.56404233252861
H          -4.37070673844265    3.18776937125433    1.28421612481497
H          -2.83094428324311    2.52934292720740    0.73392528590271
H          -4.40001739583400    1.54287031335768    3.16409831728699
H          -2.86258774121287    0.88264693361469    2.60804242633900
H          -4.30477531534383    0.72774388922542    1.60265287043674
H          -3.31449310568193    3.86008042551935    3.44293873988196
H          -2.48126164339271    4.59399337358436    2.07222324569187
H          -1.77368000013137    3.20217586215778    2.89478578348031
C          -1.96185041411945   -0.57171722554147   -0.75200452072583
C          -2.82968696567998    0.20416575225116   -1.73444226056073
C          -2.70495065797000   -1.76377774036341   -0.16305041039080
H          -1.64705380398668    0.09262855200812    0.05512060238104
H          -1.06340674640951   -0.92389614446853   -1.26284756137598
H          -3.71645230328014    0.59188656024233   -1.23724646895574
H          -3.14980600161708   -0.43906956784281   -2.55165362099983
H          -2.27958440706902    1.04206873752326   -2.15659958506262
H          -3.59480525351273   -1.43481980228296    0.36956413824639
H          -2.07011795848505   -2.30704082885451    0.53290198400588
H          -3.01484513513161   -2.44689345189205   -0.95153145210138
C           3.04919822812114   -0.90569745328606    0.08538696842594
C           3.64800579135568    0.19497148794096    0.95177098720966
C           3.99195905040749   -1.31407380506490   -1.03930865711364
H           2.10633542554673   -0.55834520321460   -0.34295319064136
H           2.82904416512430   -1.77612096144593    0.70671488542634
H           3.85463608789526    1.08176719037539    0.35599265182398
H           4.58158230380217   -0.13865266269100    1.40030027681976
H           2.96257301503628    0.47076759820822    1.74953826611306
H           4.20893253082206   -0.46428201361956   -1.68328834897821
H           3.54851478124801   -2.10091069385731   -1.64562225242196
H           4.93172564056537   -1.68305163933368   -0.63355797038961
C          -0.00276990047801   -0.79327415165712    2.71227998538854
C           0.62303163496439   -2.13299655559247    3.07798404086470
C           0.22424640689344    0.24918011348696    3.79991506620055
H          -1.07578067993635   -0.92745691433995    2.55708864602338
H           0.42759081785008   -0.43849839619878    1.77342337001317
H           0.19150298876327   -2.51659457670383    4.00027771040289
H           1.69598164882689   -2.02449966321041    3.22226919404272
H           0.45453831265699   -2.86355683213996    2.29005619993398
H          -0.22723150065911   -0.07141020317913    4.73657263389729
H          -0.21322537390484    1.20444505103065    3.51805936005630
H           1.28896739100246    0.39773091149647    3.96930514015891
C           0.65941591970295   -3.76756855067066   -0.90231561348549
C           0.30169530514039   -3.53932052043303   -2.36532832013492
C          -0.11493058786398   -4.93864397726274   -0.31048563453330
H           0.44119562343790   -2.86196049690432   -0.33246112436087
H           1.73085174440340   -3.96213756028336   -0.81624117498958
H          -0.76095965086276   -3.33056250986184   -2.46790006855338
H           0.53480433326806   -4.42166608580851   -2.95784707404445
H           0.85763895329509   -2.69699703843091   -2.77086492446875
H          -1.18564224169004   -4.75407353810551   -0.36588357169994
H           0.15385134920163   -5.09185374363712    0.73270773556866
H           0.10250255539000   -5.85406976185734   -0.85682405435195
C           1.16001297882091    0.56928648310183   -3.12089422699587
C           2.09632896093900    1.75507207721151   -3.31371600474908
C           0.23752220217575    0.37455250165941   -4.31734431353207
H           0.55764589037412    0.72782324697077   -2.22399943000390
H           1.75212644494362   -0.33580447219046   -2.96902271489300
H           1.52615332873783    2.67008963038774   -3.45870547879087
H           2.72873463573544    1.60428259044205   -4.18628915936483
H           2.73620803432046    1.88459936444287   -2.44365497259281
H          -0.37012865911087    1.26274722924763   -4.47838198750932
H          -0.42727958406544   -0.47112617320119   -4.15644665410710
H           0.81667584867736    0.18985508489598   -5.21977354090945
