88
-84.034164568223
C          -1.74307967967369    1.04333812924058    1.57609626223237
C          -1.58557321211684    2.44041863546687    2.16243080659657
C          -3.16720249002229    0.52703429060421    1.73557298298450
H          -1.05360963827746    0.36081584364870    2.07777881953605
H          -1.47759019408191    1.06096127098550    0.51712211595882
H          -1.82456885197269    2.43582513057387    3.22395338629166
H          -2.25533742397536    3.13917096816504    1.66553231530027
H          -0.56550171119144    2.79774985899805    2.04012549031865
H          -3.44100606044119    0.48549068938576    2.78791707246241
H          -3.26572145313066   -0.47046169348432    1.31475273115602
H          -3.87033197054744    1.18485192868997    1.22840953281764
C          -1.73699088662023   -1.55737719738487   -1.64434614817032
C          -1.64574045846470   -2.96084554470255   -2.22944352816900
C          -3.10559375631178   -0.93618855547786   -1.89156570017118
H          -0.96772896528074   -0.92676492924876   -2.09544751024613
H          -1.54293825786845   -1.59734737748627   -0.57060981786428
H          -1.81223936171886   -2.93564558577313   -3.30441403583622
H          -2.39771297635312   -3.60836704156083   -1.78337428780274
H          -0.66574189981861   -3.39422089266937   -2.04230130671569
H          -3.30698058200290   -0.87215977907470   -2.95902534927873
H          -3.15690328025498    0.06495222240889   -1.47101997768595
H          -3.88683331050346   -1.54096151681164   -1.43524738610052
C           1.53405195755023   -2.43260734839929    0.43567322952290
C           2.19686553505776   -2.22393113379523   -0.91986378299666
C           2.52747239864518   -2.93574270262362    1.47521644669819
H           0.71934879519758   -3.15298638267441    0.33374791719667
H           1.10225286936797   -1.48828655378096    0.77418163776608
H           2.62087748344822   -3.15732984770057   -1.28521416957099
H           2.99896708075514   -1.49312952286878   -0.84242242738832
H           1.47609214025383   -1.86545147860984   -1.65031645954008
H           2.96373999707290   -3.88097857220137    1.15831136763267
H           2.04032432330022   -3.08650658699817    2.43548379878734
H           3.33301012564869   -2.21711363767261    1.61090032221993
C          -1.85729599256052   -3.04223552440694    2.60758151511159
C          -0.99323914888756   -3.92518549930352    3.49858239600391
C          -2.56723361400615   -3.85246838558851    1.53065340041788
H          -1.23065672109554   -2.28342272668424    2.13345111630560
H          -2.59988453123655   -2.52574184825986    3.22012994655664
H          -0.23418292879884   -4.43407676318046    2.90803137377615
H          -1.60280848891827   -4.67854535420126    3.99324460108655
H          -0.49613473362658   -3.33092579115545    4.26155431905293
H          -1.84288251252791   -4.35250756436805    0.89107673984139
H          -3.18713368862312   -3.20928218688251    0.91001251404377
H          -3.20462532318126   -4.60996355710277    1.98208915573557
C          -1.48262345847988    2.50911453105798   -2.69597604170072
C          -0.51999870782221    3.31980798723705   -3.55400818547055
C          -2.18579673260730    3.37973206254899   -1.66261804433753
H          -0.93178296462139    1.71654975509696   -2.18447172688754
H          -2.22890101645620    2.03529893529026   -3.33781126916239
H           0.24248951782372    3.78571622650134   -2.93315898641529
H          -1.05353450941212    4.10476720340713   -4.08597985483974
H          -0.02812340478103    2.68293715106308   -4.28534678276326
H          -1.46011977207625    3.83832867610725   -0.99410508504380
H          -2.87650839501747    2.78814130658858   -1.06590965356131
H          -2.74820886861528    4.17239160244363   -2.15173681792436
C           1.69713712502076    1.67839781084815   -0.29877610856623
C           2.26479495000941    1.42940679982553    1.09267896329903
C           2.78001141022711    2.11413888870680   -1.27765099387059
H           0.92646416365573    2.45041286394476   -0.24304876669636
H           1.22535923782148    0.76352453160157   -0.66376630450050
H           2.72666419111276    2.33387017195211    1.48399448927424
H           3.02077308600012    0.64779284128880    1.06065151907648
H           1.48085404874660    1.11989809638257    1.77916300069904
H           3.25736059834626    3.02972694784072   -0.93405176813527
H           2.36047254293073    2.29436579971022   -2.26440451572532
H           3.54385523721653    1.34460178330090   -1.36758342264537
C           0.43137790556892    0.43885415576278    5.04456973779754
C           1.29334803513301   -0.63805874507703    4.39791819843007
C          -0.94474857057932   -0.09470130620472    5.42330889520086
H           0.31728603904740    1.27547841408914    4.35202550945321
H           0.93315486438058    0.81655165878444    5.93835077967269
H           0.81080359386627   -1.02501506377618    3.50302419227051
H           1.44920442336878   -1.46630792359099    5.08643978748709
H           2.26526841233281   -0.23836073496646    4.11791841303955
H          -1.46548288016557   -0.46261843935646    4.54210019780067
H          -1.54847669855063    0.68689515212826    5.87949004729488
H          -0.85397095054959   -0.91460514803634    6.13300623512419
C           0.70902336633013   -1.14360300485113   -4.96575475414641
C           1.59806613853089   -0.11711114013068   -4.27526118341069
C          -0.60230457109738   -0.52610584796449   -5.43581085409174
H           0.49657032020279   -1.96185820826178   -4.27445141449656
H           1.23978694066208   -1.56501277851567   -5.82248383056007
H           1.08707233357774    0.31194838524967   -3.41609474429272
H           1.85107634651993    0.69030751148925   -4.95965451411186
H           2.52198486170270   -0.57590786388038   -3.93081653843479
H          -1.15157327982803   -0.11291373824434   -4.59281187887970
H          -1.22681660856089   -1.27251485484710   -5.92197229677608
H          -0.41317348604492    0.27636553835846   -6.14604477546356
