88
-84.033636173595
C          -0.77279091267319   -1.70753666398895   -1.34790315726518
C          -0.19679485544558   -3.10152573713932   -1.13681642808794
C          -1.15738726506674   -1.47451826035246   -2.80320099424674
H          -0.03595527343288   -0.96209742336921   -1.04182449083265
H          -1.65436683537017   -1.57741303439472   -0.71680278114160
H           0.69313296728425   -3.24048053790990   -1.74735495886453
H          -0.92392696489421   -3.86075575817565   -1.41682225808071
H           0.07429446603340   -3.25329017154148   -0.09499086295337
H          -0.28644144440440   -1.57554579882741   -3.44789944496459
H          -1.57070062236684   -0.47744221258032   -2.93814427363275
H          -1.90040021690571   -2.20302045557447   -3.12119498127720
C          -0.35888581686826    2.39488665734845   -2.59217489448958
C          -0.07019962808917    3.70631528406742   -1.87343435394011
C           0.30487479278629    2.34224904278713   -3.96225855790222
H          -1.43866432920719    2.27671571527424   -2.70796758428765
H           0.00254903737571    1.56322054405273   -1.98415589121609
H          -0.43535803070642    4.54961448874171   -2.45631847601231
H           1.00004060570700    3.83174594459893   -1.72384506493881
H          -0.55573514177880    3.72466870887198   -0.90065617691286
H          -0.05242954635329    3.15552627094341   -4.59062429918012
H           0.08342548230865    1.40129509452524   -4.46128089479567
H           1.38465200824378    2.43387777462458   -3.86646187709819
C          -1.99520344657180    1.26162521790531    0.94942187155285
C          -1.85884651754634    2.33722855438574    2.01922972237419
C          -3.18061839973988    1.52490704821683    0.03014716932947
H          -2.11696691453732    0.28934263926507    1.43159530548759
H          -1.08056958863984    1.22301344252788    0.35441029526439
H          -2.75189506760376    2.37293304428835    2.63998432749875
H          -1.72255463795544    3.31539566091882    1.56239675687467
H          -1.00301862831302    2.13506505975512    2.65916521848779
H          -4.10894239587849    1.53437338536449    0.59757231978119
H          -3.25235651619120    0.75433817688032   -0.73371463120226
H          -3.07234540203099    2.48846944960641   -0.46334293473361
C           0.95206751617038   -0.83006672589264    2.19233218888741
C           2.16876191103945   -1.68614117892897    1.86514487640115
C           0.74329532459486   -0.69779905788354    3.69518442163813
H           0.06335412414866   -1.27445241408194    1.74072976340385
H           1.08053897795567    0.16353269220994    1.75873919985586
H           2.06039949976252   -2.68274998296745    2.28934515879123
H           3.07148422388853   -1.23920798770367    2.27685833708166
H           2.29170599617357   -1.78314249547809    0.78910095824332
H           0.59405683581441   -1.67633067976386    4.14713411745252
H          -0.12939567770714   -0.08430602066446    3.90849132712298
H           1.61090638043322   -0.23544977523689    4.16147716454714
C          -2.49825794645491   -2.77443658860990    2.67955427789971
C          -3.93871931036608   -3.11976486613250    3.03494387609887
C          -1.62051934720079   -4.01794124670167    2.61762060276566
H          -2.09651135995406   -2.08318656026545    3.42355043305154
H          -2.47442710105083   -2.26822071064977    1.71108140926541
H          -3.98207803250450   -3.61490061502246    4.00280287012293
H          -4.36516229965827   -3.78741743839957    2.28960566680674
H          -4.55056973130397   -2.22157860508652    3.08192380028484
H          -1.62751289367508   -4.53579760195356    3.57449720277393
H          -0.59294585094765   -3.75290372830538    2.37969416075181
H          -1.98377009908666   -4.70427900361512    1.85529302194963
C          -4.91891915739484   -2.32866190763380   -1.43216003786754
C          -5.46246644709697   -1.59877311153577   -0.21039562093829
C          -4.27821301698448   -3.65875579837469   -1.05563261642400
H          -4.17919018997720   -1.69829674688258   -1.93049408790384
H          -5.73181142537999   -2.50609233634096   -2.14022154407919
H          -4.66151506248928   -1.38720147943443    0.49391366854547
H          -6.21021053951250   -2.20629100974056    0.29519910041808
H          -5.92317706713594   -0.65676398603485   -0.49943237680268
H          -3.45323470943021   -3.50209638428409   -0.36469469953958
H          -3.89543934493753   -4.16544734808727   -1.93913949707890
H          -5.00700416441027   -4.31028871008329   -0.57739767863330
C           1.96275817957440    3.39245292075998    1.46558173069749
C           1.36089316853374    4.74897118846338    1.80925088804017
C           2.58327783521818    2.72655820362656    2.68719994290236
H           2.72623071116023    3.51963702233213    0.69488478528810
H           1.18426255479781    2.74618736707084    1.05533173369866
H           2.12530013136159    5.41665170366964    2.20137640590834
H           0.58374170988650    4.64024437568144    2.56295327309712
H           0.92297014736111    5.20999451100174    0.92672841202551
H           3.37019159488120    3.35224356090845    3.10374951221144
H           3.01419738864036    1.76331865760527    2.42388426114688
H           1.83098198905342    2.56764728851657    3.45709938375447
C           3.01865321859664    0.75963480397660   -1.22080857562801
C           4.38322190591274    0.67642375917162   -0.54903914752387
C           2.85543721790695   -0.30386726788891   -2.29921742940559
H           2.89410484223616    1.74899545453830   -1.66615047570889
H           2.23808351531430    0.63644333479884   -0.46703663871261
H           5.17688655698175    0.81719315076755   -1.28004068933563
H           4.51866810649429   -0.29665221455934   -0.08163019099225
H           4.48251069403196    1.44224617098662    0.21679837798544
H           3.62307571305390   -0.19300662638168   -3.06247455971326
H           1.88260917854867   -0.22078832345441   -2.77739625244345
H           2.94474201749845   -1.29963666125476   -1.86917508035842
