88
-84.033740712853
C           1.46722785609407    1.81371345578765   -0.68133479473122
C           1.41872999058884    2.93470890715888    0.34885655782043
C           2.23701475391318    2.22991963471153   -1.92856562581336
H           0.44976563066063    1.53307439006170   -0.96071234752676
H           1.94217930044818    0.93494942250367   -0.23960331051980
H           0.93496428608764    3.81476985051185   -0.07016125139857
H           2.42354801276299    3.21387482057229    0.65914089086210
H           0.86315873001600    2.62418236730433    1.22982575334660
H           1.77601068183724    3.10304736409009   -2.38621258637010
H           2.25169603932738    1.42525641870134   -2.66060557957207
H           3.26512676325834    2.48440497809035   -1.67756695724007
C          -1.78047545172373    0.50854489865809    1.42517865220703
C          -2.29321791787310   -0.18533807924595    2.68055490935314
C          -2.22739864256489    1.96352137821320    1.36664126909348
H          -2.15117720927687   -0.01932622824193    0.54378952098908
H          -0.68991900860303    0.46128595062086    1.40355810815720
H          -3.38095951430954   -0.18021681083917    2.70172380129878
H          -1.93314785811919    0.32631747422216    3.57094894118613
H          -1.95329103274523   -1.21818138189803    2.71632407162865
H          -3.31379399909780    2.02894066338451    1.36222388339797
H          -1.84847745096825    2.44723763321091    0.46971310838711
H          -1.85913252483514    2.51022614216733    2.23256467436554
C           0.82146298323104   -2.54993928892515    0.97763444678239
C          -0.44371937392371   -3.24667778127550    0.49353319331889
C           2.01043320074590   -3.50183087864405    1.00951493457915
H           0.65311424772809   -2.14698578663859    1.97852106330743
H           1.04724225956139   -1.71113885647988    0.31597299139542
H          -0.70248258610072   -4.07122196132935    1.15503255868672
H          -0.29892974534937   -3.64631508720345   -0.50775991435013
H          -1.27944576948797   -2.55184955650750    0.46740414702586
H           1.81002172529824   -4.33983564821804    1.67417734228926
H           2.90471758600057   -2.99159527352212    1.35983391088242
H           2.20917719322681   -3.89578766167736    0.01492376558478
C           1.58340571579274    0.32795720056968    3.63660309943664
C           1.49072802248229    1.70253875993290    4.28637476253827
C           2.69971100683203   -0.51179783360271    4.24394113325748
H           1.76227052572666    0.44779454134166    2.56595052990749
H           0.63202148399449   -0.19387783697855    3.75927732557715
H           2.41654172435662    2.25569016955797    4.14300887952761
H           1.31085257794151    1.60799062387923    5.35534623526522
H           0.67713549167358    2.27972492067527    3.85228062362171
H           3.66099898416393   -0.01886936834985    4.11653856307584
H           2.74964950892956   -1.48768410896420    3.76631563856180
H           2.52974604154853   -0.65863191238697    5.30859497188739
C          -2.55471099110922    1.70020785039906   -2.67056257721763
C          -3.98512097055601    2.07516425368607   -2.30478180668974
C          -1.69616672243020    2.93181884584195   -2.92881521082572
H          -2.56182303807401    1.07103406936834   -3.56346691977351
H          -2.11339549890626    1.11690001042028   -1.85918107035452
H          -4.44500694724780    2.64797216592999   -3.10741344036646
H          -4.00087871590715    2.68091253576314   -1.40108811203262
H          -4.58400448864270    1.18402716490582   -2.13289156171296
H          -2.11330593977567    3.52320355449570   -3.74125170483240
H          -0.68288395626462    2.64412286712241   -3.19926235624454
H          -1.65039931514877    3.55869935485981   -2.04030767484543
C           0.03572582863086   -1.18982782781539   -2.84547262811850
C           1.45111450382651   -1.75188418787834   -2.80883239447423
C          -0.86397059500889   -1.99197182653529   -3.77679750805599
H           0.06630535883360   -0.15045853844829   -3.17920009680956
H          -0.38423856465843   -1.20291027843496   -1.83781454447033
H           1.90116414227614   -1.71960360787819   -3.79915814381401
H           1.44076315258655   -2.78694935815853   -2.47421180128753
H           2.07630475825077   -1.17912331007056   -2.12832917050150
H          -0.47220883534517   -1.97676369624957   -4.79181626501986
H          -1.87046871504801   -1.58059471649474   -3.78952204756066
H          -0.92311375137841   -3.02812258569125   -3.45002408984974
C           4.61030958567907   -0.39447561149439    0.86993580538513
C           4.87931058884341   -0.80989365391676   -0.57093961541272
C           5.08040351440219    1.02836757744394    1.14326376089970
H           5.12146149558148   -1.08179134293447    1.54816906523019
H           3.53987465084531   -0.46671024376497    1.07410689693676
H           5.94596914265287   -0.78024410737291   -0.78334350291332
H           4.37659823771145   -0.13548932031245   -1.26111313075366
H           4.52056387978753   -1.82038039420390   -0.75395667903634
H           6.15268924230125    1.11436263884045    0.97984736203151
H           4.86497251471452    1.31487153951360    2.17014216490081
H           4.57675130612730    1.72772044204075    0.47987981366804
C          -4.63544216306183   -2.10022593812878   -0.00149807704917
C          -3.92923186208788   -2.04613730909931   -1.35052976075097
C          -5.46614389230970   -0.84811025589989    0.25107178262650
H          -3.89369761013895   -2.20766173050729    0.79291347037546
H          -5.28382649980613   -2.97867431329562    0.03215168568041
H          -3.27216904059142   -1.18063199907039   -1.40414762327514
H          -4.65487077602607   -1.97135778846265   -2.15802117511757
H          -3.33128659333642   -2.94069112192191   -1.50815820786139
H          -4.83292521551510    0.03625936034389    0.24262506593564
H          -5.96484485123171   -0.90554225378424    1.21621691303737
H          -6.22582234352894   -0.73236403783108   -0.51953496363529
