99
-94.539676930373
C          -1.66837885911882    2.09030904780163    1.58586899264202
C          -1.99729417879405    3.47260351284878    1.03654369024301
C          -1.01265777082573    1.20850777236551    0.53166060363021
H          -2.58560622647649    1.61189797807211    1.93687663763125
H          -0.99843209555345    2.19254521235161    2.44165097314225
H          -2.67101005164238    3.39610197886591    0.18567113154202
H          -1.09121011422075    3.97773989325706    0.70764224313916
H          -2.47306738828477    4.08715521403100    1.79762315868163
H          -1.68173215420439    1.06532473985077   -0.31341809085924
H          -0.76816774226675    0.23209837160666    0.94436006961747
H          -0.09444063138502    1.66640736375368    0.17032061962282
C          -0.05809483008048   -2.86032186665424    1.16227522711603
C          -0.58494861770199   -4.19054733455835    0.63971225394240
C           1.12513524409588   -3.05277205120065    2.10168680535266
H          -0.85887172809316   -2.33763360800322    1.69038503002218
H           0.24508949116187   -2.23548141244587    0.31909020187937
H          -0.91859395037587   -4.81719372572086    1.46429429925424
H           0.19572640552823   -4.72407900840305    0.10127703820026
H          -1.42384651593384   -4.03466262058633   -0.03435082292728
H           0.83378768240520   -3.65361756063721    2.96066055056090
H           1.49241719777182   -2.09494094948971    2.46187030602329
H           1.93735443887015   -3.56183068395071    1.58764935941149
C           3.63090628881468   -2.24802321428036   -1.83999135244275
C           2.78314115704180   -3.51363822345352   -1.81006069806696
C           3.68881765990151   -1.57528935051964   -0.47439075363507
H           3.21235643868232   -1.55157769826330   -2.56969281237847
H           4.64404841425989   -2.49777809351814   -2.16384428534020
H           1.76239573736422   -3.28046246102035   -1.51637348011250
H           3.19024168107666   -4.22827604391404   -1.09729089772687
H           2.75977426110536   -3.98468793614149   -2.79047323146656
H           2.69056654076886   -1.30329992802449   -0.13915646371729
H           4.29432394928010   -0.67309821389686   -0.51526575104808
H           4.12370665797077   -2.24708833660191    0.26285426201233
C          -4.09407482620491   -1.18789885715103    0.81879360667398
C          -4.33455997862548   -2.62234503410632    0.36563605786226
C          -4.64573035717990   -0.18084490228671   -0.18248869921351
H          -3.02221563459234   -1.02246340385295    0.94341584147011
H          -4.56789900497564   -1.03131870664253    1.79062715534460
H          -3.86337941499798   -2.80071047444083   -0.59899300975409
H          -5.40027275212209   -2.81670084641349    0.26475028268718
H          -3.92394093447382   -3.32709468492275    1.08525591097939
H          -4.16838134232407   -0.30738011364482   -1.15202293509075
H          -4.46878656316817    0.83656938683075    0.15907248003529
H          -5.71756315132385   -0.31765247128421   -0.31007880003153
C           2.34303946201485    2.23287203607156   -1.86635073530032
C           2.13900444142845    3.62232454008815   -1.27571819740618
C           3.78210940462655    2.02012586839118   -2.31801851651442
H           1.67314832056437    2.10049639240837   -2.71796115536545
H           2.08453301804049    1.47812412211668   -1.12060720306998
H           2.38426648355817    4.38777663427512   -2.00912444865045
H           2.77801579882189    3.76555378775804   -0.40674902757411
H           1.10442660496640    3.76423092768720   -0.97017489476758
H           4.05366140609096    2.74584271576304   -3.08193236474208
H           3.91278468032761    1.02220512006585   -2.73039950138092
H           4.46631658415385    2.13723923583282   -1.47982771343696
C          -1.68219233355347    3.19349675482600   -2.97292596404648
C          -2.91868189012394    2.31354990067537   -3.10949809560900
C          -0.86135947979457    3.21466793658815   -4.25627537325104
H          -1.06238088886398    2.82335377101860   -2.15376989441769
H          -1.98769343536806    4.21172985657011   -2.72111724537662
H          -2.63388430236023    1.29005357885634   -3.34412385942175
H          -3.56114258506057    2.67958814713002   -3.90764182212537
H          -3.49289699399931    2.30630330279725   -2.18547655283850
H          -0.53529647383351    2.20980376798771   -4.51688855347937
H           0.01871126338330    3.84286451595909   -4.13815841556556
H          -1.45351363738410    3.60517458497929   -5.08136196352596
C          -0.06156663341283   -0.67767960957590   -2.65914333994327
C          -1.22682502351530   -1.62976153837489   -2.42244727833634
C           0.53938123280951   -0.85471957172737   -4.04760055245640
H           0.71012727174835   -0.85330780586416   -1.90726148380697
H          -0.40437027469204    0.35134461260263   -2.54005608430356
H          -0.89875876739684   -2.66379712235187   -2.50931449282802
H          -2.01292117282739   -1.46144502359516   -3.15669822311322
H          -1.64528116239677   -1.48305621076223   -1.42952088782741
H           0.91083060509676   -1.86929574086963   -4.17566834332650
H           1.36631469362617   -0.16407514579451   -4.19987537132985
H          -0.20960319190657   -0.66771303192486   -4.81508197012960
C           2.62346012044091    1.15961786044162    2.11224263776912
C           3.36601938020525    0.32241070234184    3.14574466987735
C           2.14344087924706    2.48232717421511    2.69564316145441
H           1.76523683189275    0.59609966577910    1.74022472744447
H           3.28353639977154    1.35514737233083    1.26458734684091
H           2.71295517799311    0.08289475061795    3.98268856608152
H           4.22666674567590    0.86647837664070    3.52933743545350
H           3.71745738787123   -0.60792309803296    2.70516914643886
H           1.47820148584574    2.30714307059291    3.53823768692307
H           1.60602211500960    3.06051825753739    1.94784153594977
H           2.98759831072252    3.07328931222667    3.04557080348464
C          -0.62682238732211   -0.47691495641249    4.49110002331950
C          -0.46130679184670    0.67256432331142    5.47723606684043
C          -2.08626285149220   -0.89169065984243    4.35545005091707
H          -0.03661622436852   -1.33210277254326    4.82797749479515
H          -0.24439947695680   -0.17371138820551    3.51439714220916
H          -0.82846714990162    0.38684608735006    6.46078433653256
H          -1.02259556480760    1.54352492661410    5.14427049948473
H           0.58572655170070    0.95288442417878    5.57315885465379
H          -2.48453106379762   -1.20389848858460    5.31863604679531
H          -2.18994028607983   -1.72038082874386    3.65867465987811
H          -2.68511385902218   -0.05991114900324    3.99092361709701
