99
-94.538876504337
C           0.74273482348684    1.48614458353504   -1.12069206118816
C           0.10132655057652    2.86712003242553   -1.16176792730486
C           0.51035063629931    0.79471044537146    0.21563088044011
H           1.81662756757586    1.58048681688442   -1.29422550778813
H           0.32866382586626    0.87217627246309   -1.92305195928337
H           0.50797368903636    3.50138719425655   -0.37657972701340
H          -0.97389914318119    2.79267237260090   -1.01636864176292
H           0.28506032213504    3.34835323292530   -2.11983082739288
H           0.91607149560257    1.39387782113036    1.02723634638872
H           0.99270130457618   -0.17957364156980    0.23545485219156
H          -0.55336771229468    0.64964362904861    0.39329600916715
C           4.24673547283775    0.65503500005814    1.15893541416023
C           3.80171916654027    0.63326099990014    2.61560364311981
C           4.36021301981454    2.07767829054679    0.62594072214661
H           3.52884228866969    0.09897501283272    0.55315150415394
H           5.21481342420668    0.15623771391649    1.06928865937084
H           2.83053890617520    1.11056735179176    2.72456048118123
H           4.51505446933049    1.16640315736995    3.24064247824737
H           3.72310692767199   -0.38887317794194    2.97806993745786
H           3.39961937527559    2.58424551358260    0.68810061416871
H           4.68131587406483    2.07499576365286   -0.41340216794467
H           5.08358280507270    2.64623360771892    1.20676928652421
C           2.83563794973895   -1.30054883059938   -2.84082033140309
C           1.96639696247386   -1.07207279845052   -4.07076259822674
C           4.03337168766272   -0.35971742495496   -2.81528323796646
H           3.18857583538700   -2.33431645529906   -2.83286778530506
H           2.23572364130532   -1.14728474295497   -1.94183743522186
H           2.54010992331707   -1.23617159879434   -4.98058187651628
H           1.59053027535603   -0.05088032963121   -4.08522500724557
H           1.11862153684865   -1.75383673651147   -4.07317739005137
H           4.65971994027909   -0.51549492587412   -3.69120404146066
H           4.63734471882433   -0.52909445776121   -1.92672333094852
H           3.70221524436478    0.67675924126280   -2.81372904700209
C          -1.10435852540393    3.54877923664333    2.63673782678883
C          -2.04774921460607    3.26897000749365    3.79964237166401
C           0.33756731536098    3.69571252684934    3.10712323202516
H          -1.41419772143000    4.46520482877327    2.12910869161054
H          -1.16995257339561    2.73395542181034    1.91333186851683
H          -2.00898984093688    4.07865453871250    4.52536966659414
H          -1.76810125851164    2.34546278632124    4.30170663114963
H          -3.07305518224287    3.17296152856769    3.44895141474548
H           0.42837430652309    4.52536883556267    3.80497981915474
H           1.00199962875215    3.88451085852247    2.26623354161678
H           0.66882864806982    2.79068612184382    3.61319334697447
C          -3.83891203836909    1.64454196632714    0.16672089048986
C          -4.88832039675520    0.58606532501778   -0.14644797914946
C          -4.07844567072008    2.92936632850995   -0.61564870945805
H          -2.84882838097918    1.25280430830780   -0.07878021131108
H          -3.85438177711979    1.86468285659017    1.23656397552386
H          -4.86600305245650    0.32973387827844   -1.20324566132984
H          -5.88289887793060    0.95384034607395    0.09655193506067
H          -4.70667956756153   -0.31830712303316    0.42970927750654
H          -4.03324031918960    2.73702936352057   -1.68550369279398
H          -3.32861899397977    3.67759096105325   -0.36673496756277
H          -5.05927365246359    3.33838888761477   -0.38281053235826
C          -1.14179118594320   -1.44200358250245    3.24271137630710
C          -2.47390216027853   -0.71119453110192    3.13410688259182
C          -0.07015871329552   -0.56491876332845    3.87712630631368
H          -0.81516298932871   -1.74781448231337    2.24714627606924
H          -1.27329019502643   -2.34659916304959    3.84094272052476
H          -2.36564385273538    0.18852575095736    2.53281251944867
H          -2.83254549539159   -0.42071680071063    4.11952851741133
H          -3.22518432394670   -1.34704183263091    2.67089092835402
H           0.08320088475493    0.33066240148804    3.27972475894935
H           0.87528117375245   -1.09809765627465    3.94552740983123
H          -0.36703380243628   -0.26349706285166    4.87993307094106
C           2.36959345487515   -3.09698687334664    1.73143235491266
C           3.09711669554627   -3.38507359815062    0.42433167268044
C           1.38014518447225   -4.20152307246376    2.08102971673271
H           1.83818267749149   -2.14576461999940    1.65082429538033
H           3.10045263646942   -2.99781692591677    2.53751629059592
H           2.38615492324317   -3.48248980044731   -0.39318289344495
H           3.65942541885018   -4.31345798861621    0.49909741636500
H           3.79036942183295   -2.58214529956298    0.18420185358798
H           0.63219263493739   -4.30509407753909    1.29789375120115
H           0.87016016123194   -3.97932482931928    3.01545727438538
H           1.89567879660119   -5.15368180649903    2.18762817724427
C          -0.74344578863444   -2.46099515690686   -1.17285049599972
C          -0.55129650930837   -3.74387940982325   -1.97127598100624
C          -2.14711455416618   -2.35940930685050   -0.59063660212434
H          -0.55662458803682   -1.60223944069337   -1.82009075934125
H          -0.01395110853764   -2.42897891071096   -0.36096184877853
H          -1.25316716820631   -3.78506796157132   -2.80169692184898
H          -0.71813328373635   -4.61558904396448   -1.34126889960799
H           0.45837005070392   -3.79976761219638   -2.37323297253199
H          -2.89197779101088   -2.37155328244081   -1.38340040006487
H          -2.26310193291831   -1.43699813767034   -0.02701507755172
H          -2.34541426430264   -3.19557920894897    0.07724580121434
C          -2.60013651182803    0.45249179405378   -3.60283853711030
C          -1.89575963547559    1.64915855596754   -4.22929150812661
C          -2.37211858550914   -0.81930306588808   -4.40967382843876
H          -3.67239353572231    0.65457227072953   -3.54381813781662
H          -2.23417430949997    0.30698919094876   -2.58441117693172
H          -2.26771998926951    1.82596876074973   -5.23647594821164
H          -0.82399789593154    1.47165452027632   -4.28918864781846
H          -2.06130029420964    2.54734593765304   -3.63884406773145
H          -2.75256917339406   -0.70177877553667   -5.42231099586816
H          -2.87968241518201   -1.66400526755677   -3.94926580245765
H          -1.30998802377671   -1.04689103316280   -4.46986768081860
