99
-94.539338842804
C          -1.70529277640649   -0.34032309204731    2.74885132559100
C          -0.94182599089642   -0.77134344565340    3.99446989659872
C          -0.76989827048361   -0.08530661575100    1.57416312516782
H          -2.26974017940670    0.56967495806532    2.96607916165722
H          -2.42199670463832   -1.11950992094011    2.47865134892285
H          -0.24786592666904    0.00687558383979    4.30514762684650
H          -0.37343479455789   -1.67684007026791    3.79604615007285
H          -1.62647623103152   -0.96707867890033    4.81671243423301
H          -0.04747120422463    0.68897680703724    1.82288735869662
H          -1.33024391763794    0.23363881836567    0.69860032086931
H          -0.22171484845971   -0.99047110762095    1.32131194935273
C           0.53158632456488   -2.21345601865938   -1.68457953525312
C          -0.06418186995435   -2.45539507416740   -3.06561145818335
C           1.92892638315689   -2.80808811493368   -1.56506457470781
H          -0.11930054217796   -2.65923511363475   -0.92908422834028
H           0.57575308307873   -1.13885318966881   -1.49082219455989
H          -0.14972076287556   -3.52259596279705   -3.25995722560311
H           0.56899675504222   -2.01934867912558   -3.83556742020534
H          -1.05404054224150   -2.01249231752706   -3.14269106052535
H           1.90138452129217   -3.88196443215850   -1.73865635735223
H           2.34261208936060   -2.63201459135050   -0.57528233775511
H           2.59459859169637   -2.36100337407236   -2.29996907236771
C           3.33530600333172    1.53853957017821   -3.07923006506510
C           2.50676906376653    0.71709274545578   -4.05904844401037
C           3.77190130788685    0.70859303915655   -1.87872254809368
H           2.74605543743195    2.39132527367246   -2.73531119024223
H           4.21809060409490    1.93064304416960   -3.58973317292667
H           1.61286035457035    0.33469955893526   -3.57189720165191
H           3.08326667975581   -0.12802741297175   -4.43052589353169
H           2.20271315727511    1.32328826437620   -4.90979086297670
H           2.90588923243847    0.32269539509898   -1.34583127793045
H           4.35964239198054    1.30864478691121   -1.18815742536199
H           4.37834843057657   -0.13566775642460   -2.20069583620708
C          -3.65412936521802   -1.89588029005865   -0.72326001854200
C          -4.42108671285681   -0.65896212776214   -0.27306553797654
C          -4.00380562051147   -2.28437471927029   -2.15425454212079
H          -3.88428884033345   -2.72878929059735   -0.05513477153794
H          -2.58121968056113   -1.70344569522647   -0.65255012472693
H          -5.49319905507566   -0.83713551068194   -0.32245550933044
H          -4.18660679354966    0.18926692700928   -0.91256133550626
H          -4.16322047660736   -0.39889995967041    0.75087108375537
H          -5.06579569567733   -2.50458295190271   -2.23985762880264
H          -3.44474663834461   -3.16536423310122   -2.46143528244541
H          -3.76937097817315   -1.47056531290600   -2.83798004487986
C           1.82138957236747    3.20725731812204    1.15914561713829
C           1.72783665738730    3.31764946212393    2.67583703422621
C           3.11369644890728    3.81533330586228    0.62976201078304
H           0.96956092170720    3.71795571810217    0.70662836655687
H           1.77183174823696    2.15632071493132    0.86639445326330
H           1.76565237078793    4.36034683849057    2.98465584200756
H           2.55533430683817    2.79243490862714    3.14843517868933
H           0.79538263473405    2.88971497784065    3.03841445959978
H           3.17214246230896    4.87109394629983    0.88659269721361
H           3.16794621379122    3.72131751469996   -0.45240775198148
H           3.97697947288341    3.31255818189500    1.06146690287763
C          -2.33661829006033    3.64840123987918    1.71556472399244
C          -3.53556083943664    3.15765094138872    0.91363800402876
C          -1.82796306904665    4.99048267594050    1.20423264937395
H          -1.53408773514289    2.91036456209478    1.65494901381172
H          -2.61824541372105    3.74476988755743    2.76681143407955
H          -3.27072128062402    3.04219957729073   -0.13515244600914
H          -4.35642233098310    3.86852486576374    0.98127355514755
H          -3.88237888627800    2.19665101949550    1.28638616088071
H          -1.52749111391606    4.91163773930711    0.16139219241446
H          -0.97128607843511    5.32342907095142    1.78589700480286
H          -2.60726791719345    5.74623640841594    1.27771218998760
C          -0.48541074774417    2.14612912743350   -1.74119324899507
C          -1.46425370985699    1.27548456351798   -2.51856375502391
C          -0.19085143193873    3.45075031202491   -2.47018718029006
H           0.44730630727204    1.59933970927759   -1.58924914123478
H          -0.89979134284268    2.36690562754443   -0.75593082999112
H          -1.05777865252752    1.02200022642191   -3.49563721363511
H          -2.40591378265618    1.80071585303099   -2.66890890953438
H          -1.66767359820272    0.35210605529111   -1.98127592875218
H           0.23935961234889    3.25102253079112   -3.44937380570115
H           0.51143280387859    4.05853777117260   -1.90338111828764
H          -1.10518611090627    4.02425289533047   -2.61164146322282
C           3.35573421385724   -0.48872052676222    1.80055694693296
C           4.43819754046259   -1.49194556564423    1.42366237355517
C           3.01473290424174   -0.55719218110054    3.28340511776887
H           2.45599475558217   -0.68711914545404    1.21343804963962
H           3.69564994115708    0.51847138718197    1.55151275081287
H           4.11269948273612   -2.50581710877574    1.64793923282242
H           5.34952915225135   -1.29587315948885    1.98465422087607
H           4.66785488202060   -1.42877749674391    0.36251280065654
H           2.66553269201163   -1.55278942195250    3.54838814884078
H           2.23371030415672    0.15736889066408    3.53078426778187
H           3.89180240892005   -0.33164875542858    3.88662720765797
C           0.04704200947054   -4.87659472646282    1.46503080572432
C          -1.34165488027910   -4.29551457576722    1.70067962627171
C           1.12482808084219   -4.07060582078299    2.17888210986928
H           0.25759686416704   -4.89039440140595    0.39346697575289
H           0.07298705477463   -5.90931967100756    1.82021850482774
H          -1.39521000540604   -3.27299545394052    1.33399148259769
H          -1.57778522642465   -4.28906289983264    2.76286771763332
H          -2.09690476692227   -4.88411563714882    1.18445992015886
H           1.12584624931758   -3.04128528559888    1.82668249110644
H           2.10847055940316   -4.49736381719510    1.99471305517124
H           0.94894349323759   -4.06613142866311    3.25314009628183
