99
-94.538994242401
C           0.69597196800837   -1.40153864365630   -0.39288253729205
C           0.63707663633207   -2.66512380705502    0.45609238718914
C          -0.56837376531109   -0.56568064429054   -0.24941924698951
H           0.82939968657985   -1.67559777158505   -1.44137420897434
H           1.56024782113688   -0.80623985773262   -0.09193744143095
H          -0.21059292836479   -3.28240752273457    0.16519793812211
H           0.52986885885606   -2.41304887626557    1.50894630955963
H           1.54466809099985   -3.25239321502517    0.33386477761278
H          -1.44126746275908   -1.14430376305572   -0.54203489947230
H          -0.51926367169398    0.31890312939402   -0.87973181345492
H          -0.69884858009895   -0.24283844459094    0.78133811031741
C          -1.74470347423090   -0.90616305270212   -3.91684279312225
C          -3.17177994000862   -0.68083863025248   -3.43416498222560
C          -1.32303409833332   -2.36270451323177   -3.76891679234518
H          -1.06567094627342   -0.27313936314278   -3.34252719703623
H          -1.66646950939852   -0.61130944966538   -4.96603616186447
H          -3.26413683781853   -0.94461737683438   -2.38318833347281
H          -3.86849270078640   -1.29404156147333   -4.00188788421184
H          -3.45619783089052    0.36205671972900   -3.55106028520698
H          -1.37383026941145   -2.66924518947814   -2.72661914114011
H          -0.30305439198573   -2.50693275148645   -4.11904696333857
H          -1.97845452224049   -3.01054406525233   -4.34736299829382
C           3.46090804269765    0.11990814208056   -2.85812035348388
C           4.28434340764052    1.12293813074382   -2.05990432306652
C           2.11736113541709    0.70440538980570   -3.27529236383596
H           3.29400283843241   -0.77512440668500   -2.25433950611639
H           4.01901493370068   -0.18092982849021   -3.74765873944397
H           3.74444376155197    1.42940018092237   -1.16659562902171
H           4.48633305235450    2.01081393801145   -2.65570006486806
H           5.23575265287991    0.68978179085758   -1.75827601463629
H           1.54116083699114    0.99091427959805   -2.39860560730058
H           1.54126401831446   -0.02212770531961   -3.84383816528094
H           2.26099689336018    1.58742673464901   -3.89471662069995
C          -3.24865675543964   -2.97675715480004    1.54528915836270
C          -4.35532910427750   -2.56824760398735    2.50910421736538
C          -3.78510715765045   -3.20718896310688    0.13775882972096
H          -2.77246897743323   -3.89222010004276    1.90461953870512
H          -2.48555964972177   -2.19630610156736    1.52022904820931
H          -5.11945929767756   -3.34096156997230    2.56143167123896
H          -4.82454899848320   -1.64454119144210    2.17790382551772
H          -3.95557607592188   -2.41227561180749    3.50856115317994
H          -4.52363120198840   -4.00595975168912    0.13734318149840
H          -2.98269423900748   -3.48603297518765   -0.54253745554675
H          -4.26253412716027   -2.30562842641088   -0.24200267408685
C           0.29183631655065   -0.67075079792468    4.05753777442128
C          -0.82680007105157   -1.57368176069830    4.56192113351861
C           0.56234413983802    0.48178981378669    5.01583959117185
H           0.01979441340022   -0.26751622096077    3.07932933007487
H           1.20410461366530   -1.25782001508992    3.93004738411406
H          -1.74621305014706   -1.00515413425666    4.68671265862636
H          -0.56060848854094   -2.00691570862885    5.52374325177696
H          -1.01551388363599   -2.38449292929549    3.86139475048977
H          -0.33132148699395    1.08974345560887    5.14138104703392
H           1.35998756319631    1.11683130504649    4.63763902934770
H           0.85695987976484    0.10334118444109    5.99231562377346
C          -3.24482227108813    1.94158899641827    1.34827368870141
C          -4.12267829791663    1.12082119535305    0.41238194100420
C          -3.05407342225564    1.24782136303218    2.69097594488061
H          -3.69960230914572    2.92177923450939    1.50902319584017
H          -2.27111611843229    2.10181045674955    0.88154401924455
H          -5.10661706547804    0.96451256608465    0.85054541221178
H          -3.66970617800261    0.14938701985377    0.22881729489060
H          -4.24890834215875    1.62622922202675   -0.54228052046107
H          -4.01117985987668    1.11212175819465    3.19072824232470
H          -2.40934763799731    1.83678404660197    3.33999169754157
H          -2.60324374415854    0.26793070761971    2.55121678384507
C          -2.07316290813362    3.11735100172782   -2.47535409688386
C          -2.24136594991991    4.35476373334281   -1.60242780769660
C          -0.85954408886456    3.23188324969488   -3.38915765870236
H          -2.97094780951687    2.97933032232888   -3.08256986906107
H          -1.96825507769003    2.23517024304482   -1.83952492019155
H          -2.37375539190921    5.24048957643576   -2.22028073760289
H          -1.36310080976722    4.50336975259825   -0.97810104351808
H          -3.10915196790212    4.25369140594496   -0.95478023604518
H          -0.96363138744165    4.08712759871844   -4.05354653166724
H          -0.74856723723882    2.33621834070423   -3.99613417273179
H           0.04703116731865    3.36499140091003   -2.80297841909345
C           1.10824801767083    2.76987295843933    0.36758847953981
C           1.95794819758553    3.90329636534512   -0.19281468409037
C           0.69407074976495    3.03256899608301    1.80941610458576
H           1.67194208185655    1.83569167870270    0.31826672648574
H           0.21443574727329    2.64876072578549   -0.24802980289193
H           2.86297645626594    4.02862758348355    0.39813422846316
H           1.40572260487659    4.84092722487530   -0.17174368856343
H           2.24638845473408    3.69801419330709   -1.22169879702635
H           1.57155116009491    3.14999679251972    2.44171482284590
H           0.10056716764376    2.20779521625375    2.19638611451946
H           0.10043016273460    3.94211528786293    1.87663205574341
C           3.68518614541840    0.24837274003016    2.43282701984410
C           4.18870268498503   -0.91900312188166    1.59321570114635
C           4.54700872077552    1.49085093461440    2.24647772724646
H           3.68690357488763   -0.03726411142927    3.48724559607464
H           2.65388866241345    0.47653242014097    2.15584471455517
H           5.20532203244517   -1.18240760474223    1.87791073013811
H           4.18879386597029   -0.65826258729043    0.53702865131581
H           3.55568971391988   -1.79250527488662    1.73202469165385
H           5.57563984038073    1.28832423264764    2.53750101659892
H           4.17544163771557    2.31253405010199    2.85525348338065
H           4.54454328664056    1.80582229015598    1.20509951652882
