36
-796.05097461419
C    -0.3267442   -0.4541811    3.4911793 
C    -1.4806217   -0.6375985    2.6253305 
H     0.5627825   -0.9394332    3.0324864 
H    -0.1251719    0.6306834    3.5942084 
H    -0.5170559   -0.8963670    4.4887659 
N    -2.4045629   -0.7748559    1.9189609 
C    -2.6353393    2.2964589    0.5333487 
C    -1.3986207    2.4292853    1.2868737 
H    -2.4001695    2.0853724   -0.5330820 
H    -3.2150006    1.4457710    0.9438432 
H    -3.2333602    3.2261691    0.6040444 
N    -0.4013973    2.5216098    1.8939406 
C     2.4856592   -2.3677723   -0.8403898 
C     2.2869636   -1.9915204    0.5502411 
H     3.0887162   -3.2944343   -0.9081887 
H     1.4985884   -2.5296897   -1.3268100 
H     3.0076021   -1.5418601   -1.3634806 
N     2.1238224   -1.6747769    1.6658486 
C     2.7456941    1.6424449    1.5032703 
C     2.7997686    1.2853574    0.0945899 
H     2.8893706    0.7267848    2.1107478 
H     3.5348983    2.3808139    1.7460193 
H     1.7478021    2.0733704    1.7394639 
N     2.8351021    0.9858687   -1.0370310 
C     0.6716962    0.4043546   -3.4467501 
C    -0.5659057    0.9218286   -2.8851841 
H     0.5929486   -0.6977944   -3.5320680 
H     0.8577854    0.8452737   -4.4456913 
H     1.5184991    0.6489699   -2.7683399 
N    -1.5628075    1.3273358   -2.4233879 
C    -2.9416686   -1.5214143   -1.2407264 
C    -1.6406097   -2.0073320   -1.6720056 
H    -2.9258485   -1.3407209   -0.1433322 
H    -3.1545471   -0.5629169   -1.7546920 
H    -3.7306198   -2.2600562   -1.4834157 
N    -0.5876480   -2.3850288   -2.0185876 
