36
-796.04983167160
C    -0.1620672    1.3993193   -1.8696209 
C    -0.0467980    1.6943415   -0.4515098 
H     0.6649554    1.8848698   -2.4222793 
H    -1.1464835    1.7502421   -2.2369767 
H    -0.0807997    0.3032969   -2.0250714 
N     0.0379798    1.9348668    0.6928660 
C     2.9298398   -2.3024784   -1.4335235 
C     1.5330348   -2.0958914   -1.7790060 
H     3.5340761   -1.4882478   -1.8801133 
H     3.2811957   -3.2856925   -1.8030308 
H     3.0318551   -2.2512025   -0.3283716 
N     0.4085867   -1.9141276   -2.0485130 
C    -3.2296793    1.7671244    1.4884407 
C    -3.3363072    1.7048503    0.0376370 
H    -3.2451987    0.7333089    1.8891770 
H    -4.0669265    2.3500632    1.9192913 
H    -2.2636634    2.2377214    1.7595424 
N    -3.4040539    1.6368126   -1.1299369 
C    -2.8509077   -1.6492504   -1.6377553 
C    -2.7691890   -1.5731896   -0.1878621 
H    -3.2212032   -0.6790028   -2.0263643 
H    -3.5383191   -2.4611960   -1.9458666 
H    -1.8333451   -1.8443708   -2.0391929 
N    -2.6863230   -1.4954217    0.9782210 
C     0.0080629   -0.6943310    2.6917273 
C     1.2546225   -1.1940866    2.1356212 
H    -0.0772416    0.3857424    2.4522684 
H    -0.0133604   -0.8442452    3.7890409 
H    -0.8630070   -1.2078735    2.2308422 
N     2.2703852   -1.5685405    1.6875547 
C     3.3618334    1.5748432    1.0615500 
C     3.2430116    1.2523797   -0.3531872 
H     2.4033793    2.0106491    1.4099148 
H     4.1844620    2.2970765    1.2301930 
H     3.5533214    0.6453077    1.6332822 
N     3.1342718    0.9863324   -1.4889887 
