36
-796.04876886903
C     2.9967950   -2.3272592   -0.2684648 
C     2.8059510   -1.4632830    0.8845018 
H     3.6171461   -3.2034250    0.0046707 
H     3.4898895   -1.7479360   -1.0739110 
H     2.0079693   -2.6715831   -0.6462683 
N     2.6522738   -0.7605398    1.8092496 
C     2.8631111    2.3610055    0.7544983 
C     1.4181662    2.4932968    0.6524711 
H     3.1026446    1.5484332    1.4706644 
H     3.3210006    3.3134918    1.0852777 
H     3.2660032    2.0612684   -0.2343929 
N     0.2535440    2.5851207    0.5723008 
C    -3.0618023    2.1722881    0.0188942 
C    -3.2622981    1.2275557   -1.0705004 
H    -3.5700655    3.1312523   -0.2044001 
H    -1.9760478    2.3578536    0.1700940 
H    -3.4747299    1.7521243    0.9564248 
N    -3.4082031    0.4665060   -1.9488847 
C    -0.0863102    0.3658459   -2.0260046 
C     1.3643596    0.4246073   -1.9485587 
H    -0.4039914   -0.3584114   -2.7995475 
H    -0.4955086    1.3626230   -2.2769255 
H    -0.5077061    0.0455508   -1.0521899 
N     2.5327876    0.4810642   -1.8783706 
C    -0.1448647    0.2993964    3.0750017 
C    -0.9369890   -0.1922325    1.9586888 
H    -0.5181754   -0.1204657    4.0297572 
H    -0.1993364    1.4048896    3.1091998 
H     0.9136560   -0.0050400    2.9221242 
N    -1.5639136   -0.5882782    1.0522987 
C    -2.6537873   -2.6816292   -1.1608242 
C    -1.2129375   -2.8679023   -1.2361491 
H    -3.1809623   -3.5458782   -1.6102567 
H    -2.9451192   -1.7480287   -1.6883255 
H    -2.9495623   -2.5628573   -0.1010802 
N    -0.0529869   -3.0094240   -1.3010630 
