39
-764.23726143163
C    -2.5844947   -2.3331965    1.3242501 
C    -1.3374002   -3.2220916    1.3383181 
H    -3.1849457   -2.4794537    2.2441861 
H    -3.2445502   -2.5512719    0.4599128 
H    -2.3066438   -1.2618785    1.2750905 
H    -1.6257407   -4.2918007    1.4361794 
H    -0.7324988   -2.9865324    2.2408275 
C    -0.4210709   -3.0862989    0.1054448 
O     0.0080380   -1.7339413   -0.0786814 
C    -1.0686383   -3.5387580   -1.2008974 
H     0.4728713   -3.7332632    0.2881644 
H    -1.9660589   -2.9308656   -1.4336966 
H    -1.3729507   -4.6028694   -1.1433158 
H    -0.3568352   -3.4256691   -2.0423438 
H     0.3030752   -1.3619669    0.7975445 
C     2.2418118   -0.0605810   -1.6644380 
C     2.6737374    0.9922955   -0.7586006 
H     1.7043202    0.4048164   -2.5156368 
H     3.1178908   -0.6227281   -2.0437002 
H     1.5500717   -0.7623587   -1.1443416 
N     3.0118290    1.8536166   -0.0394497 
C     1.2291180    4.4203568   -1.1709664 
C     0.8456213    3.4030175   -2.1394141 
H     0.4379006    4.4948238   -0.3982890 
H     2.1698767    4.1045561   -0.6769014 
H     1.3708002    5.4012957   -1.6649707 
N     0.5370143    2.5667618   -2.8997557 
C     1.3770468    2.1697536    2.7417622 
C     1.0453885    0.7921471    2.4268442 
H     0.5295049    2.8094542    2.4190560 
H     1.5694196    2.2934185    3.8250156 
H     2.2732357    2.4500344    2.1507934 
N     0.7765961   -0.3095526    2.1412194 
C    -1.6228288    0.8252625   -1.0105290 
C    -1.2996197    1.8988878   -0.0850644 
H    -1.1256592   -0.1203413   -0.6890349 
H    -2.7185151    0.6664842   -1.0470921 
H    -1.2533578    1.1007881   -2.0190938 
N    -1.0233591    2.7676490    0.6516043 
