39
-764.23366092032
C    -0.8209159    3.0577816    0.5625915 
C    -1.7893096    2.5534845   -0.5097592 
H    -0.8482320    4.1628745    0.6464896 
H     0.2209622    2.7604501    0.3325652 
H    -1.0757875    2.6374412    1.5574725 
H    -1.5337157    2.9934826   -1.5003688 
H    -2.8202414    2.8965748   -0.2779937 
C    -1.8231870    1.0294733   -0.6562144 
O    -0.5097733    0.5912790   -1.0340242 
C    -2.8599019    0.5653536   -1.6818038 
H    -2.0793381    0.5917891    0.3392360 
H    -2.6346716    0.9932471   -2.6806661 
H    -3.8830298    0.8783445   -1.3886292 
H    -2.8541675   -0.5395884   -1.7709734 
H    -0.5093651   -0.3998060   -0.9916314 
C     1.9360186    2.0650347   -2.1986896 
C     2.7856587    1.2256834   -1.3671985 
H     1.9741061    3.1168243   -1.8531324 
H     2.2632840    2.0230347   -3.2561685 
H     0.8940964    1.6831580   -2.1002126 
N     3.4303068    0.5214705   -0.6883741 
C     2.7976864   -2.7078912   -0.4963166 
C     2.3535911   -3.1126962    0.8289152 
H     3.2157926   -1.6781199   -0.4609073 
H     3.5695952   -3.4043866   -0.8781823 
H     1.9294729   -2.7056077   -1.1849626 
N     1.9753552   -3.4170497    1.8955145 
C    -1.3004030   -3.3994604    1.8130381 
C    -0.9590048   -2.6964760    0.5891083 
H    -1.7974324   -2.6868722    2.5026045 
H    -1.9636603   -4.2602250    1.6005395 
H    -0.3574996   -3.7497731    2.2826752 
N    -0.6603380   -2.1144410   -0.3818611 
C     1.0578106    0.1900293    1.8595462 
C    -0.2128525   -0.0998876    2.5066710 
H     0.8688465    0.3608659    0.7791079 
H     1.5251491    1.0949437    2.2928606 
H     1.7472717   -0.6673166    1.9834477 
N    -1.2521771   -0.3530227    2.9856863 
