42
-732.42134245672
C    -2.0525298    1.7944062    2.7031960 
C    -2.1790451    0.2706691    2.7799800 
H    -2.9103178    2.2937030    3.1966270 
H    -2.0167050    2.1525127    1.6549302 
H    -1.1260952    2.1472588    3.2034375 
H    -3.1170245   -0.0644347    2.2844106 
H    -2.2573997   -0.0457039    3.8432232 
C    -1.0129655   -0.4998333    2.1462492 
O    -0.9384541   -0.2736879    0.7301352 
C    -1.1340646   -2.0088755    2.3380802 
H    -0.0614705   -0.1508844    2.6218356 
H    -2.1067906   -2.3690432    1.9440100 
H    -1.0699692   -2.2798749    3.4101002 
H    -0.3281252   -2.5305768    1.7862238 
H    -0.7745820    0.6841763    0.5184668 
C     2.2086307    0.3048683   -2.1205883 
C     2.5167639    0.0350734   -0.6480112 
H     2.3973579    1.3645948   -2.3874327 
H     1.1507641    0.0775152   -2.3524982 
H     2.8356355   -0.3230658   -2.7876866 
H     1.8871094    0.6916916   -0.0061484 
H     3.5717495    0.3044167   -0.4211677 
C     2.2816097   -1.4255880   -0.2209091 
O     0.9470425   -1.8497246   -0.4779117 
C     2.6663760   -1.6535735    1.2462804 
H     2.9229439   -2.0790752   -0.8565753 
H     2.0620396   -1.0034880    1.9142775 
H     3.7360593   -1.4215243    1.4288269 
H     2.4831157   -2.7073605    1.5348313 
H     0.3218960   -1.2298218   -0.0080556 
C    -0.1964552    3.2786020   -2.8000279 
C    -0.3107115    2.6852677   -1.4789263 
H    -0.5837854    2.5377506   -3.5353623 
H    -0.7924990    4.2103565   -2.8579724 
H     0.8626437    3.5081858   -3.0276565 
N    -0.4163866    2.1790669   -0.4301631 
C    -1.6266878   -1.4814776   -2.1740315 
C    -1.5084477   -0.3726518   -3.1070868 
H    -1.9644241   -1.1022327   -1.1871211 
H    -2.3383633   -2.2393730   -2.5556590 
H    -0.6286760   -1.9391312   -1.9989808 
N    -1.3997618    0.5308873   -3.8451491 
