48
-865.10462691737
C    -2.9295596   -0.7531268    2.8501216 
C    -2.2978480    0.6319681    2.6947695 
H    -3.4341160   -0.8610233    3.8312156 
H    -2.1635053   -1.5506848    2.7760054 
H    -3.6837431   -0.9430902    2.0582214 
H    -1.5581824    0.8087382    3.5069540 
H    -3.0771685    1.4182120    2.8009819 
C    -1.5905062    0.8420344    1.3486760 
O    -0.5247156   -0.1174883    1.1873746 
C    -0.9859512    2.2359475    1.2166625 
H    -2.3257991    0.6942666    0.5241887 
H    -0.2185944    2.4040478    2.0008469 
H    -1.7666504    3.0143080    1.3243775 
H    -0.5058037    2.3636223    0.2267347 
H    -0.9078446   -0.9557802    0.8079752 
C     2.4969954    0.3331798    2.5292660 
C     3.3238114    0.5513818    1.2589967 
H     3.0649270   -0.2427381    3.2874500 
H     1.5535254   -0.2072812    2.3178831 
H     2.2169820    1.3041095    2.9906121 
H     3.6811856   -0.4224375    0.8554043 
H     4.2363532    1.1390789    1.5027767 
C     2.5714531    1.2754275    0.1291108 
O     1.5178234    0.4743113   -0.4096635 
C     3.4928341    1.6420531   -1.0319528 
H     2.1379748    2.2178318    0.5499266 
H     3.9454611    0.7276338   -1.4687881 
H     4.3126715    2.3079891   -0.6971510 
H     2.9282755    2.1605216   -1.8320180 
H     0.7870980    0.3167166    0.2664281 
C    -0.3034186    1.0905748   -2.9325067 
C    -1.6533996    0.9130223   -2.4224312 
H    -0.1841624    2.1020718   -3.3684212 
H     0.4252093    0.9541998   -2.0976707 
H    -0.0992156    0.3251195   -3.7072083 
N    -2.7320946    0.7525375   -1.9924982 
C     1.5066157   -2.4869344   -1.4798921 
C     0.6433742   -2.3888063   -2.6460702 
H     1.6704143   -1.4658684   -1.0580249 
H     1.0184144   -3.1125525   -0.7071373 
H     2.4809521   -2.9365467   -1.7550573 
N    -0.0626487   -2.2792448   -3.5754675 
C    -3.1164499   -2.4289368   -2.3508917 
C    -2.3184806   -2.3126109   -1.1437397 
H    -3.7182936   -1.5049967   -2.4616223 
H    -2.4233307   -2.5107772   -3.2141527 
H    -3.7751101   -3.3178226   -2.3045097 
N    -1.6557591   -2.2021571   -0.1860851 
