54
-997.77913477585
C     0.7383272    1.3112680   -3.3912997 
C     0.9414719   -0.2010343   -3.2550280 
H     0.0239103    1.5453895   -4.2057716 
H     1.6852612    1.8407251   -3.6215422 
H     0.3344455    1.7442345   -2.4544195 
H     1.3551193   -0.6214160   -4.1961940 
H    -0.0385264   -0.7036537   -3.1088278 
C     1.8569696   -0.6351606   -2.1039976 
O     1.2698154   -0.1559387   -0.8790406 
C     3.2987891   -0.1390315   -2.2245708 
H     1.8565685   -1.7482816   -2.0880531 
H     3.3481654    0.9689161   -2.2359259 
H     3.7678881   -0.5182318   -3.1552233 
H     3.9066834   -0.4973427   -1.3695703 
H     1.8419291   -0.4077896   -0.1023315 
C    -3.4144672   -1.6828327   -0.1824068 
C    -2.6717562   -1.0491857   -1.3626606 
H    -3.5572910   -2.7703844   -0.3399698 
H    -4.4182137   -1.2357902   -0.0320570 
H    -2.8495269   -1.5536663    0.7625474 
H    -3.3118730   -1.0774218   -2.2720258 
H    -1.7736916   -1.6541874   -1.6109480 
C    -2.2150522    0.4058815   -1.1405840 
O    -1.2154849    0.4963389   -0.1161976 
C    -3.3502234    1.3535723   -0.7597079 
H    -1.7756569    0.7632876   -2.1017480 
H    -3.7786055    1.0824587    0.2263421 
H    -4.1657440    1.3183442   -1.5096161 
H    -2.9815389    2.3964243   -0.6942928 
H    -0.3370383    0.1769800   -0.4802247 
C     2.9505781   -0.0548485    4.0178314 
C     2.8007149   -0.3338103    2.6014358 
H     2.2660756   -0.7213328    4.5802052 
H     3.9988421   -0.2062475    4.3404779 
H     2.6383077    0.9961921    4.1933338 
N     2.6564766   -0.5489314    1.4611416 
C    -0.1057780   -2.5979900    1.0477274 
C     0.1311310   -3.1499268   -0.2781942 
H    -0.7812488   -3.2490862    1.6350951 
H     0.8442033   -2.4809346    1.6019442 
H    -0.5688792   -1.5964820    0.9429521 
N     0.3162509   -3.5683619   -1.3571661 
C     0.9623495    2.7568561    0.4885104 
C     1.2051808    2.7016022    1.9208097 
H    -0.0713704    2.4107199    0.2732367 
H     1.1150846    3.7832014    0.1022861 
H     1.6305636    2.0474579   -0.0401037 
N     1.3801013    2.6399250    3.0780321 
C    -1.5769396    0.7596366    3.0493874 
C    -0.7413339   -0.2925844    3.6072300 
H    -1.5274230    0.7218669    1.9363265 
H    -2.6284321    0.6289629    3.3729568 
H    -1.2060368    1.7449312    3.3937543 
N    -0.0590718   -1.1432873    4.0361344 
