54
-997.78066490234
C    -1.1467883   -0.1424575    4.2432652 
C    -0.2634525   -0.1060149    2.9934092 
H    -1.0898504   -1.1276286    4.7487431 
H    -2.2103273    0.0450615    3.9853644 
H    -0.8476241    0.6238080    4.9873348 
H    -0.5469860   -0.9378712    2.3145329 
H     0.8031485   -0.2797273    3.2581141 
C    -0.3696482    1.2003832    2.1896809 
O     0.2900665    1.0750855    0.9240328 
C     0.2402277    2.4047151    2.8989801 
H    -1.4561100    1.4004898    2.0187803 
H     1.3197779    2.2330370    3.0912577 
H    -0.2638050    2.6024226    3.8653248 
H     0.1413478    3.3140237    2.2729573 
H     0.0330518    0.2033000    0.4989268 
C     3.2881946   -2.4108916   -0.0730654 
C     1.9037295   -1.9048090    0.3396169 
H     4.0171170   -2.2943017    0.7536968 
H     3.6726130   -1.8424722   -0.9450831 
H     3.2761373   -3.4847422   -0.3509941 
H     1.9750256   -0.8517868    0.6832600 
H     1.5148171   -2.4867747    1.2053858 
C     0.8722212   -1.9472291   -0.7909772 
O    -0.3110564   -1.2468904   -0.3341351 
C     0.4924196   -3.3578061   -1.2382580 
H     1.2922813   -1.3899245   -1.6585666 
H     0.0888715   -3.9439756   -0.3859760 
H     1.3685085   -3.8991608   -1.6484345 
H    -0.2793478   -3.3197445   -2.0330316 
H    -0.8029570   -0.9565001   -1.1547246 
C    -3.0215094   -2.0656230    1.0995265 
C    -3.3881953   -0.6569958    1.0462973 
H    -2.9601956   -2.4073200    2.1514785 
H    -3.7689596   -2.6837205    0.5642899 
H    -2.0257793   -2.1789087    0.6166125 
N    -3.6445096    0.4849403    0.9928990 
C    -1.8887683    2.5638111   -0.9172525 
C    -1.2199349    3.0503534   -2.1121204 
H    -1.1409758    2.0573936   -0.2646776 
H    -2.3533383    3.3984087   -0.3574027 
H    -2.6768198    1.8303475   -1.1722498 
N    -0.6434120    3.4229615   -3.0628189 
C    -0.0657819    0.7607737   -4.8262719 
C    -0.7085951    0.1467166   -3.6789344 
H    -0.1441164    1.8631190   -4.7155941 
H     1.0062748    0.4790958   -4.8171439 
H    -0.5459863    0.4337841   -5.7688635 
N    -1.2147862   -0.3312026   -2.7384843 
C     2.1918885    2.4950717   -1.1412442 
C     2.3396979    1.3729748   -2.0546407 
H     1.6628617    3.3203991   -1.6577456 
H     1.5880779    2.1654310   -0.2644232 
H     3.1846008    2.8485396   -0.7996542 
N     2.4366588    0.4580320   -2.7809994 
