54
-997.77911479919
C    -1.0548672   -3.6943222   -0.7409290 
C    -1.3567571   -3.2493883    0.6918238 
H    -0.8971992   -4.7895219   -0.8036664 
H    -0.1472444   -3.2013532   -1.1391764 
H    -1.8929786   -3.4356421   -1.4210277 
H    -0.5344692   -3.5538378    1.3778537 
H    -2.2693360   -3.7614129    1.0662075 
C    -1.5687672   -1.7406744    0.8371337 
O    -0.3575264   -1.0680739    0.4609218 
C    -1.9965685   -1.3234875    2.2459885 
H    -2.3752545   -1.4417723    0.1230276 
H    -1.2473071   -1.6526950    2.9963727 
H    -2.9757393   -1.7675701    2.5190999 
H    -2.0872007   -0.2202557    2.2982301 
H    -0.6009464   -0.0969510    0.3437574 
C    -1.9657766    0.2721686   -2.3176627 
C    -2.7259854    1.2606697   -1.4290403 
H    -2.6634131   -0.3759660   -2.8850499 
H    -1.3084156   -0.3896530   -1.7214165 
H    -1.3282231    0.8075795   -3.0501306 
H    -3.3785653    0.7181637   -0.7079460 
H    -3.4070200    1.8759993   -2.0548640 
C    -1.8388299    2.2213037   -0.6335862 
O    -1.1079507    1.4589083    0.3507664 
C    -2.6427651    3.3168661    0.0671365 
H    -1.1053125    2.6886785   -1.3315449 
H    -3.3914364    2.8714573    0.7543723 
H    -3.1756419    3.9514394   -0.6700261 
H    -1.9752598    3.9733870    0.6605310 
H    -0.4397109    2.0686674    0.7648102 
C     2.4474857   -2.8659961    0.5489698 
C     2.6289751   -3.1788272   -0.8626023 
H     1.5198040   -2.2659651    0.6713062 
H     2.3595443   -3.7960197    1.1443714 
H     3.3096777   -2.2780855    0.9212353 
N     2.7535857   -3.3994639   -2.0063600 
C     1.8258917   -0.1350349   -1.8696425 
C     1.5055001    1.2621663   -2.1122791 
H     1.8837456   -0.7051712   -2.8164892 
H     2.8017975   -0.2025217   -1.3498870 
H     1.0502312   -0.5953068   -1.2220857 
N     1.2558950    2.3924859   -2.2960368 
C     1.6814193    0.2317134    2.6074846 
C     2.7883564    0.4778518    1.6965362 
H     1.2773027    1.1967300    2.9703821 
H     0.8771431   -0.3065148    2.0552482 
H     2.0132276   -0.3787452    3.4699828 
N     3.6596011    0.6634874    0.9346761 
C     3.1115222    3.8303183   -0.0930018 
C     1.8974131    3.4675553    0.6152851 
H     3.5472727    4.7603845    0.3208588 
H     3.8349380    2.9951453    0.0080187 
H     2.8632643    3.9621615   -1.1649826 
N     0.9228737    3.1449410    1.1770454 
