51
-833.28603077390
C     1.6263596    2.1655378    0.9729374 
C     0.5812828    1.9609816   -0.1248838 
H     2.5975050    1.7095428    0.6940199 
H     1.3013212    1.6971928    1.9260240 
H     1.8141093    3.2395519    1.1785177 
H     0.4599562    0.8773218   -0.3263765 
H     0.9319975    2.4134048   -1.0790247 
C    -0.8170979    2.5175448    0.2052060 
O    -1.7930233    2.0346311   -0.7128848 
C    -0.8828838    4.0419996    0.1928021 
H    -1.0770055    2.1703359    1.2395340 
H    -0.5960991    4.4333957   -0.8059960 
H    -0.2020506    4.4851272    0.9461958 
H    -1.9143336    4.3821480    0.4104631 
H    -1.7639644    1.0324102   -0.6643528 
C     3.8196093   -1.7129236    0.1205744 
C     2.4355364   -1.2991486   -0.3856704 
H     4.3904679   -0.8349322    0.4834657 
H     4.4191529   -2.1895498   -0.6834275 
H     3.7567313   -2.4339037    0.9609804 
H     2.5404863   -0.5028921   -1.1537071 
H     1.8418701   -0.8504549    0.4403825 
C     1.6140405   -2.4412252   -1.0082617 
O     0.3963808   -1.9499271   -1.5820449 
C     1.2345554   -3.5381593   -0.0180871 
H     2.2252140   -2.9011307   -1.8234620 
H     0.6589798   -3.1166259    0.8317202 
H     2.1321672   -4.0419053    0.3898771 
H     0.6042941   -4.2992541   -0.5176327 
H     0.6135200   -1.3171961   -2.3202437 
C    -1.3329723   -1.6679706    3.1963443 
C    -1.0817496   -0.8928225    1.9007781 
H    -0.5556054   -1.4468132    3.9549656 
H    -1.3220154   -2.7642961    3.0185278 
H    -2.3141424   -1.4159600    3.6479812 
H    -0.0618934   -1.1212808    1.5234640 
H    -1.0957033    0.2023540    2.0931518 
C    -2.0769430   -1.2034628    0.7659385 
O    -1.6435189   -0.6384548   -0.4725116 
C    -3.4804428   -0.6666969    1.0351493 
H    -2.1294348   -2.3148443    0.6525065 
H    -3.4542983    0.4418634    1.0792248 
H    -3.8915159   -1.0511952    1.9888968 
H    -4.1660720   -0.9570260    0.2153430 
H    -0.8492419   -1.1514017   -0.8142406 
C    -0.8634151    2.2240578   -3.6449317 
C    -0.0233460    1.0442501   -3.5522395 
H    -1.6391067    2.0870414   -4.4237447 
H    -1.3462669    2.3605942   -2.6414536 
H    -0.2543526    3.1159363   -3.8911437 
N     0.6329573    0.0842301   -3.4186509 
