57
-965.96975071401
C    -2.1528660    1.3662196    1.6151715 
C    -1.7094735    0.0660001    2.2875324 
H    -3.2551918    1.4765083    1.6419509 
H    -1.8430177    1.3930969    0.5523282 
H    -1.7145931    2.2541339    2.1158560 
H    -2.2195866   -0.7975904    1.8087346 
H    -2.0147614    0.0629920    3.3564907 
C    -0.1960102   -0.1953451    2.2240250 
O     0.2737932   -0.2645087    0.8669924 
C     0.2028828   -1.4574789    2.9920619 
H     0.3358252    0.6768114    2.6705956 
H    -0.3289694   -2.3429351    2.5872502 
H    -0.0520547   -1.3683797    4.0679127 
H     1.2923962   -1.6393784    2.9060192 
H    -0.3625678   -0.8483299    0.3371612 
C    -0.1536464    4.1915350    0.0846108 
C     0.8976000    3.5920427    1.0186753 
H    -0.9075847    4.7812459    0.6433492 
H    -0.6876203    3.3923617   -0.4653498 
H     0.3119483    4.8633995   -0.6671183 
H     0.4028616    2.9425238    1.7749779 
H     1.4075108    4.3958108    1.5938294 
C     1.9671371    2.7587144    0.2894132 
O     1.3890917    1.7655983   -0.5508832 
C     2.9762712    2.1477080    1.2680626 
H     2.5140893    3.4394637   -0.4038312 
H     2.4703653    1.4386172    1.9564911 
H     3.4655059    2.9286009    1.8855214 
H     3.7665711    1.5921222    0.7258897 
H     0.9101393    1.0920838    0.0152020 
C     0.5353296   -3.7400159   -0.2138237 
C    -0.9415015   -3.9147879   -0.5752452 
H     0.9122606   -4.5962930    0.3809703 
H     0.6952173   -2.8203219    0.3810608 
H     1.1576951   -3.6621546   -1.1287436 
H    -1.5513279   -4.0693863    0.3426271 
H    -1.0712580   -4.8292038   -1.1927452 
C    -1.5442940   -2.7363467   -1.3433132 
O    -1.5925083   -1.6036654   -0.4512993 
C    -2.9503603   -3.0336880   -1.8640261 
H    -0.8785444   -2.4863525   -2.2028348 
H    -3.6284033   -3.2947258   -1.0254254 
H    -2.9369235   -3.8779813   -2.5830132 
H    -3.3684706   -2.1496009   -2.3858164 
H    -1.9255591   -0.8247434   -0.9797505 
C     2.8085429   -1.0003331   -1.0027557 
C     1.8796331   -1.0117403   -2.1234195 
H     3.5079803   -0.1493688   -1.1025094 
H     2.2282270   -0.8707433   -0.0657714 
H     3.3778774   -1.9499041   -0.9659566 
N     1.1198296   -1.0354464   -3.0147264 
C    -0.1157137    1.9178526   -3.2547357 
C    -1.1800661    1.1808286   -2.6006350 
H     0.3175847    1.2965287   -4.0617934 
H    -0.4916855    2.8770456   -3.6605698 
H     0.6599120    2.0970484   -2.4747409 
N    -2.0095184    0.5838554   -2.0299306 
