66
-1066.83135329809
C    -1.6724202    4.9606996   -1.4617140 
C    -1.0175409    3.6430598   -1.0430864 
H    -1.0249626    5.5203833   -2.1657478 
H    -1.8568615    5.6175156   -0.5856726 
H    -2.6459578    4.8003877   -1.9681007 
H    -0.0047087    3.8386231   -0.6308710 
H    -0.8680942    2.9825512   -1.9259373 
C    -1.7917627    2.8483745    0.0144675 
O    -0.9931335    1.7101349    0.3508177 
C    -3.1894460    2.4192806   -0.4382683 
H    -1.8992709    3.4896511    0.9239890 
H    -3.1309348    1.8348359   -1.3802106 
H    -3.8470671    3.2938672   -0.6155085 
H    -3.6702146    1.7858856    0.3329564 
H    -1.4540345    1.1802477    1.0810615 
C     3.6415930    2.0071841    0.3421434 
C     2.3927384    1.1528512    0.1122355 
H     3.9504740    1.9871399    1.4065296 
H     3.4590978    3.0684938    0.0701986 
H     4.5052971    1.6547914   -0.2578193 
H     1.5836414    1.4799007    0.7990207 
H     2.5993292    0.0874753    0.3571695 
C     1.8220161    1.2207894   -1.3147891 
O     0.5809971    0.5103944   -1.3969552 
C     2.7505283    0.6503212   -2.3829452 
H     1.6351411    2.2977791   -1.5517248 
H     2.9618356   -0.4205274   -2.1874066 
H     3.7110267    1.2001616   -2.4174970 
H     2.2740421    0.7222540   -3.3803853 
H    -0.0629887    0.9177957   -0.7367065 
C    -0.2529270   -5.1432435   -0.1482720 
C    -0.0513135   -4.2130850   -1.3466488 
H    -0.7893390   -6.0676417   -0.4425707 
H    -0.8527767   -4.6495011    0.6453082 
H     0.7096409   -5.4539571    0.3067681 
H    -1.0328008   -4.0014323   -1.8224722 
H     0.5667726   -4.7053605   -2.1296208 
C     0.5922075   -2.8639878   -1.0020531 
O     0.5696372   -2.0591638   -2.1800438 
C     2.0239644   -2.9980827   -0.4727603 
H    -0.0299796   -2.3869898   -0.2060281 
H     2.6742619   -3.4544857   -1.2472461 
H     2.0729631   -3.6236877    0.4418348 
H     2.4379296   -2.0013767   -0.2204117 
H     0.6470570   -1.1058356   -1.8869177 
C     1.0856131   -1.6489002    3.1052387 
C    -0.0974308   -1.0997358    2.3059184 
H     1.6723085   -2.3635745    2.4957848 
H     0.7493394   -2.1850366    4.0177699 
H     1.7782166   -0.8440116    3.4243369 
H    -0.6919380   -1.9440919    1.8957227 
H     0.2689838   -0.5304623    1.4247897 
C    -1.0524013   -0.1988112    3.1055925 
O    -2.1159413    0.2837019    2.2613287 
C    -0.3868137    1.0327611    3.7117988 
H    -1.5037231   -0.8043045    3.9291918 
H     0.1058577    1.6338669    2.9202028 
H     0.3720431    0.7503591    4.4665135 
H    -1.1473937    1.6683890    4.2061752 
H    -2.4808889   -0.4663415    1.7164096 
C    -2.3388835   -1.1301574   -2.3538553 
C    -2.6474333   -1.2519808   -0.9415533 
H    -1.3389538   -1.6009399   -2.5388706 
H    -3.1209458   -1.6171142   -2.9682131 
H    -2.2666953   -0.0587442   -2.6258584 
N    -2.8665761   -1.3593433    0.2034681 
