72
-1199.52041362981
C     1.5095253    1.2186530    2.7823077 
C     2.1963703   -0.1072719    2.4413513 
H     2.2128546    2.0668704    2.6683963 
H     1.1370237    1.2382072    3.8268006 
H     0.6451666    1.4061560    2.1154559 
H     3.0278475   -0.3030906    3.1537544 
H     2.6624397   -0.0391721    1.4353998 
C     1.2780881   -1.3442958    2.4373302 
O     0.3000520   -1.2725197    1.3843120 
C     0.5303087   -1.5724632    3.7470549 
H     1.9240891   -2.2340004    2.2425739 
H    -0.1588990   -0.7316735    3.9627023 
H     1.2385388   -1.6635388    4.5945903 
H    -0.0712427   -2.5014704    3.6958073 
H     0.7850901   -1.1113968    0.5003824 
C     1.7763489    2.8363289   -0.5080475 
C     0.3016738    3.1896517   -0.7234832 
H     2.1824390    3.3652260    0.3765049 
H     2.4037139    3.1198731   -1.3775463 
H     1.9092697    1.7494485   -0.3401274 
H     0.1954042    4.2748928   -0.9433018 
H    -0.2667088    3.0077920    0.2131605 
C    -0.4068829    2.4101244   -1.8475837 
O    -0.5128799    1.0098064   -1.5335454 
C     0.2671113    2.5280911   -3.2107946 
H    -1.4421552    2.8199458   -1.9312792 
H     1.2879024    2.0970298   -3.1881261 
H     0.3480864    3.5893555   -3.5195878 
H    -0.3152009    1.9855846   -3.9816363 
H    -0.9465761    0.9142101   -0.6141834 
C     3.8259810   -0.0774993   -2.6222239 
C     2.5726642   -0.8623312   -3.0188434 
H     4.2498518    0.4644785   -3.4913822 
H     4.6223235   -0.7400329   -2.2263309 
H     3.5916939    0.6682728   -1.8369681 
H     2.8182447   -1.6271994   -3.7876273 
H     1.8423896   -0.1771109   -3.5026274 
C     1.8508107   -1.5704903   -1.8597711 
O     1.4524783   -0.6143305   -0.8580561 
C     2.6836180   -2.6363722   -1.1564848 
H     0.9435017   -2.0675623   -2.2709705 
H     3.5731839   -2.1931691   -0.6649868 
H     3.0229254   -3.4065807   -1.8764585 
H     2.0761732   -3.1446763   -0.3815046 
H     0.7863709    0.0391697   -1.2469394 
C    -2.5125267    1.7844722    3.4752066 
C    -2.9313755    0.4860866    2.7803444 
H    -2.5953712    1.6929566    4.5768178 
H    -3.1444040    2.6421691    3.1670734 
H    -1.4619079    2.0392938    3.2329461 
H    -3.9945531    0.2494588    3.0040746 
H    -2.3439069   -0.3633611    3.1929976 
C    -2.7552518    0.4762012    1.2522561 
O    -1.3762493    0.7074344    0.9052738 
C    -3.5844939    1.5231238    0.5167231 
H    -3.0625486   -0.5250044    0.8748909 
H    -3.2754619    2.5505526    0.7963712 
H    -4.6612997    1.4025183    0.7463811 
H    -3.4589059    1.4085766   -0.5782390 
H    -0.7998708   -0.0531232    1.2379818 
C    -1.5941463   -3.7084295    0.4823300 
C    -1.0959113   -3.8054890   -0.8813078 
H    -1.4760855   -4.6738672    1.0122972 
H    -1.0160641   -2.9158657    1.0090885 
H    -2.6640635   -3.4201075    0.4559568 
N    -0.6868789   -3.8435888   -1.9790840 
C    -2.2871031   -1.1581984   -3.1141454 
C    -3.1446469   -1.5076357   -1.9917522 
H    -2.8908090   -0.8023899   -3.9719797 
H    -1.5907104   -0.3541732   -2.7852590 
H    -1.7001979   -2.0506127   -3.4107559 
N    -3.8062654   -1.7819176   -1.0639553 
