72
-1199.51472344984
C     1.5137845    2.2228682   -3.5103152 
C     0.5465576    1.6054523   -2.4992802 
H     2.1049427    1.4327984   -4.0142382 
H     2.2311445    2.9092988   -3.0127645 
H     0.9884966    2.8036632   -4.2962451 
H     1.1099456    0.9613548   -1.7945244 
H    -0.1711974    0.9330028   -3.0175297 
C    -0.2607132    2.6172105   -1.6703636 
O    -0.8887565    1.9660985   -0.5500948 
C    -1.3089217    3.3766083   -2.4836245 
H     0.4477763    3.3494842   -1.2198284 
H    -2.0257063    2.6656014   -2.9458965 
H    -0.8432539    3.9711781   -3.2953785 
H    -1.8783008    4.0660660   -1.8301064 
H    -1.3243729    1.1166761   -0.8797406 
C     1.1968543   -3.8202300    2.6843891 
C     0.5989490   -2.6083104    1.9669947 
H     1.0907446   -3.7233378    3.7832489 
H     2.2801958   -3.9032699    2.4626214 
H     0.7076055   -4.7708506    2.3876397 
H     1.1190077   -1.6972366    2.3284994 
H    -0.4801197   -2.4903206    2.2159293 
C     0.7503268   -2.6463488    0.4391913 
O     0.3742259   -1.3904163   -0.1408082 
C    -0.0897830   -3.7268619   -0.2325200 
H     1.8249397   -2.8316889    0.2068414 
H    -1.1688083   -3.5765773   -0.0161608 
H     0.1964789   -4.7349488    0.1246206 
H     0.0543550   -3.7045235   -1.3301854 
H     0.7605883   -0.6082465    0.3719757 
C    -3.9731878   -1.0190390    1.8636269 
C    -2.8625718   -0.4652265    0.9694926 
H    -3.7943314   -0.7599969    2.9262232 
H    -4.0312344   -2.1260079    1.7969786 
H    -4.9698205   -0.6160810    1.5903284 
H    -1.8768104   -0.8296432    1.3272165 
H    -2.8207377    0.6438786    1.0377086 
C    -2.9765849   -0.8545356   -0.5134671 
O    -1.7862784   -0.4624844   -1.2162674 
C    -4.1600822   -0.2134452   -1.2292493 
H    -3.0753874   -1.9668846   -0.5767100 
H    -4.0810126    0.8924414   -1.1806224 
H    -5.1215299   -0.5141759   -0.7691828 
H    -4.1787710   -0.5125113   -2.2957449 
H    -0.9866130   -0.9145035   -0.7711279 
C     2.1396195    3.3683184    3.5728083 
C     1.7486223    2.8203731    2.1975630 
H     2.5922050    4.3766615    3.4886723 
H     2.8822763    2.7100819    4.0706019 
H     1.2657006    3.4566185    4.2498911 
H     2.6284616    2.8419546    1.5198373 
H     0.9775877    3.4722352    1.7274717 
C     1.2200474    1.3767024    2.2066686 
O     1.0672264    0.9226303    0.8548806 
C    -0.0838563    1.2083663    2.9889538 
H     2.0006908    0.7180369    2.6477345 
H    -0.8833555    1.8430749    2.5528810 
H     0.0409523    1.4921655    4.0529589 
H    -0.4219807    0.1545235    2.9576367 
H     0.2899264    1.4032557    0.4099054 
C    -0.2603257   -1.9053946   -3.7070674 
C     1.1440662   -1.7050782   -3.3778154 
H    -0.4880490   -2.9872909   -3.7800164 
H    -0.9034220   -1.4504022   -2.9211865 
H    -0.4936377   -1.4305180   -4.6807910 
N     2.2722758   -1.5303736   -3.1194324 
C     3.7758537    0.0496683   -0.6084197 
C     3.7356741   -0.6989520    0.6387936 
H     4.8050233    0.3977020   -0.8240504 
H     3.4168392   -0.5783122   -1.4522696 
H     3.0939812    0.9171868   -0.5073926 
N     3.6755645   -1.2892127    1.6496333 
