81
-1300.39055691700
C     1.2747897    1.6220241    2.2487746 
C     1.8758000    2.6232394    1.2619093 
H     2.0590642    1.1666384    2.8857967 
H     0.7548197    0.7980062    1.7242676 
H     0.5331819    2.1051400    2.9179324 
H     2.5691788    2.0991200    0.5681755 
H     2.4833758    3.3802054    1.8037404 
C     0.8304736    3.3687895    0.4182186 
O    -0.0096099    2.4558662   -0.3071110 
C     1.4638571    4.3785097   -0.5392192 
H     0.1408910    3.9092629    1.1066414 
H     2.1750036    3.8721213   -1.2241874 
H     2.0225653    5.1597227    0.0151446 
H     0.6858749    4.8715986   -1.1541143 
H     0.5749251    1.7837052   -0.7981079 
C     0.1105124    1.8830599   -3.7684978 
C     1.6205959    1.7342046   -3.5695333 
H    -0.1189643    2.7219503   -4.4559708 
H    -0.3979495    2.0952150   -2.8076988 
H    -0.3270565    0.9604916   -4.2010504 
H     2.0340954    2.6535450   -3.0972583 
H     2.1271225    1.6446035   -4.5542498 
C     2.0423339    0.5238761   -2.7278918 
O     1.4099222    0.6039174   -1.4392995 
C     3.5619790    0.4519854   -2.5635073 
H     1.6799993   -0.3991996   -3.2353132 
H     3.9409057    1.3654333   -2.0600338 
H     4.0670111    0.3592779   -3.5466712 
H     3.8537501   -0.4231042   -1.9495048 
H     1.3125366   -0.3141605   -1.0206489 
C     1.9570022   -4.0528594   -1.7444172 
C     2.7887343   -3.1551398   -0.8269395 
H     2.5968807   -4.5597757   -2.4943727 
H     1.1911705   -3.4719478   -2.2928258 
H     1.4345020   -4.8410381   -1.1620293 
H     3.2807061   -2.3524911   -1.4200388 
H     3.6126690   -3.7351769   -0.3574743 
C     1.9848970   -2.5010735    0.2997944 
O     0.9406974   -1.7066633   -0.2827820 
C     2.8490023   -1.6573324    1.2391406 
H     1.5042059   -3.3185813    0.8884699 
H     3.3168798   -0.8182639    0.6845280 
H     3.6545051   -2.2648128    1.6997684 
H     2.2360367   -1.2239500    2.0538435 
H     0.2227588   -1.5300099    0.4030890 
C    -1.2801815   -4.0698534    1.5187768 
C    -0.8713987   -3.1568632    2.6775750 
H    -0.8695782   -5.0913862    1.6457489 
H    -0.9133546   -3.6757037    0.5507195 
H    -2.3843808   -4.1567154    1.4465032 
H     0.2378322   -3.0753291    2.7290861 
H    -1.1895371   -3.5958090    3.6473633 
C    -1.4541546   -1.7440438    2.5865509 
O    -1.0991017   -1.1946967    1.3116895 
C    -0.9962904   -0.8336817    3.7260781 
H    -2.5686393   -1.8306936    2.6263281 
H     0.1107239   -0.7725641    3.7572958 
H    -1.3525204   -1.2137719    4.7051235 
H    -1.3915935    0.1910948    3.5820812 
H    -1.4804214   -0.2575479    1.2124323 
C    -4.4670184   -0.3578120    0.6988815 
C    -4.2969398    1.0667271    1.2327338 
H    -5.2911262   -0.8885922    1.2160262 
H    -3.5444022   -0.9549206    0.8322762 
H    -4.7041077   -0.3521489   -0.3855092 
H    -4.1225813    1.0520939    2.3315584 
H    -5.2355056    1.6398395    1.0748803 
C    -3.1480692    1.8493210    0.5895415 
O    -1.9073252    1.2537478    0.9874119 
C    -3.1547339    3.3294062    0.9758657 
H    -3.2532929    1.7728998   -0.5222703 
H    -3.0560755    3.4403292    2.0752748 
H    -4.0930083    3.8250648    0.6535537 
H    -2.3076000    3.8562445    0.4935563 
H    -1.1469767    1.7349092    0.5070263 
C    -1.7044883   -0.7784900   -1.8370427 
C    -0.9673952   -1.4803806   -2.8762560 
H    -1.8403430   -1.4251345   -0.9489941 
H    -1.1276828    0.1099792   -1.5184626 
H    -2.6946586   -0.4529790   -2.2101993 
N    -0.3557052   -2.0284687   -3.7116905 
