81
-1300.39061674035
C     2.3782598   -3.8570903   -0.1586838 
C     0.9838726   -4.4871332   -0.1106009 
H     3.1336509   -4.5077708    0.3253682 
H     2.3992575   -2.8759282    0.3536235 
H     2.7051148   -3.6908722   -1.2064055 
H     0.6919811   -4.7066401    0.9405137 
H     0.9962305   -5.4640533   -0.6395296 
C    -0.1202550   -3.6250696   -0.7301873 
O    -0.3095466   -2.4639051    0.0870526 
C    -1.4453808   -4.3763926   -0.8702669 
H     0.2162087   -3.3070722   -1.7493143 
H    -1.8054421   -4.7098660    0.1246709 
H    -1.3361396   -5.2662201   -1.5230670 
H    -2.2154197   -3.7174086   -1.3182526 
H    -0.9968599   -1.8586465   -0.3618889 
C     2.8181475    3.9054332    0.1771182 
C     1.4601962    3.9366888    0.8800494 
H     3.0841800    4.9038040   -0.2243476 
H     2.8167510    3.1914622   -0.6684033 
H     3.6227031    3.6006204    0.8793874 
H     0.6627493    4.2228439    0.1588771 
H     1.4488056    4.7163316    1.6722826 
C     1.0681416    2.6080205    1.5316300 
O     1.0279525    1.5948759    0.5155622 
C    -0.2636301    2.6786596    2.2813812 
H     1.8745521    2.3359753    2.2538022 
H    -1.0893480    2.9187601    1.5806957 
H    -0.2390394    3.4551371    3.0728213 
H    -0.4976631    1.7070911    2.7595663 
H     1.0979123    0.6821421    0.9386971 
C    -2.4506172   -0.3585008    1.7719055 
C    -3.3979128    0.0672540    0.6499505 
H    -2.5825163    0.2761347    2.6708072 
H    -1.3917097   -0.2765146    1.4613416 
H    -2.6237921   -1.4122765    2.0727499 
H    -3.1606723    1.1055156    0.3299389 
H    -4.4471507    0.0818480    1.0168710 
C    -3.3407613   -0.8386518   -0.5896192 
O    -2.0080176   -0.9214457   -1.1205882 
C    -4.3181939   -0.3997577   -1.6802621 
H    -3.5919159   -1.8788489   -0.2789043 
H    -4.1077231    0.6433583   -1.9944282 
H    -5.3659508   -0.4421544   -1.3194395 
H    -4.2256435   -1.0524034   -2.5702092 
H    -1.6316207    0.0177674   -1.2237243 
C     3.7679396    0.0827237    2.5156959 
C     2.5599954   -0.3462927    3.3522685 
H     4.4019881    0.8072708    3.0645691 
H     3.4488153    0.5615731    1.5691335 
H     4.4028261   -0.7883696    2.2510083 
H     1.9312806    0.5387599    3.6002773 
H     2.8921657   -0.7655009    4.3260391 
C     1.6735655   -1.3905951    2.6684006 
O     1.2922378   -0.8823602    1.3841431 
C     0.4464934   -1.7688066    3.4978068 
H     2.2905014   -2.3094255    2.5060684 
H    -0.1592961   -0.8697514    3.7319373 
H     0.7447229   -2.2470654    4.4529361 
H    -0.1943165   -2.4762396    2.9356316 
H     0.7094010   -1.5574399    0.8958579 
C    -0.8983109    0.6100476   -4.0810125 
C    -1.5599227    1.8754705   -3.5303788 
H    -1.3589487    0.3069477   -5.0427678 
H    -1.0149759   -0.2373895   -3.3775628 
H     0.1841203    0.7720787   -4.2596500 
H    -2.6355772    1.6809321   -3.3194983 
H    -1.5412083    2.6792092   -4.2970803 
C    -0.9105497    2.4402998   -2.2613251 
O    -0.9180483    1.4283329   -1.2404703 
C    -1.6355406    3.6930874   -1.7648634 
H     0.1496265    2.6921288   -2.4924915 
H    -2.6951779    3.4606769   -1.5308447 
H    -1.6142919    4.4972244   -2.5285367 
H    -1.1605440    4.0877492   -0.8447908 
H    -0.1811717    1.5845095   -0.5621840 
C     1.8749538   -0.4820598   -1.7738444 
C     2.3026024    0.7837970   -2.3488740 
H     2.1795540   -1.3289179   -2.4185662 
H     2.3042960   -0.6165580   -0.7623498 
H     0.7735247   -0.4822448   -1.6714823 
N     2.6235250    1.8110965   -2.8117417 
