14
-13.664177434261
C           1.56555602271383   -0.54436414952028    0.12719786226928
C           0.69256707807857    0.62091394974203   -0.32384774028900
C          -0.69256725727337    0.62089710737231    0.32388224000345
C          -1.56555748490196   -0.54435436076353   -0.12722664992389
H          -1.65997939998085   -0.55119926897717   -1.21120972678367
H          -2.56114072307950   -0.45873999468841    0.30269468731805
H          -1.14253426217786   -1.49451098459785    0.18793546511601
H          -1.19599025002088    1.55703129861764    0.06977518862081
H          -0.58078261591309    0.59095195793568    1.41028500161175
H           0.58078985123824    0.59103325356467   -1.41025269790906
H           1.19598652531033    1.55703330715043   -0.06968085049607
H           1.65972340293565   -0.55144264001326    1.21120189442443
H           1.14269676346144   -1.49449057254510   -0.18828143695440
H           2.56123341852786   -0.45855890327910   -0.30246625998634
