28
-27.333520713720
C           0.87725909111765   -0.18655591623889    2.11694894248398
C           0.84870386088320   -0.47286334769551    0.62080619640858
H          -0.09414566369134    0.16558777715413    2.45712425416374
H           1.61688750628305    0.57818850488957    2.34498250162549
H           1.13011150093664   -1.08516421425371    2.67531504622577
C           0.49980137435665    0.77098584095380   -0.19242974960370
H           0.11309747743707   -1.25389320195155    0.41527698091749
H           1.82464814082385   -0.84796277728286    0.30340896210556
H          -0.47009653696542    1.15289436841226    0.13437891621140
C           0.45079565542986    0.47991109297639   -1.68712119798346
H           1.24252237936755    1.54827199020484    0.00276219229627
H          -0.30112483711029   -0.27546682075359   -1.90477393343053
H           1.41403566261831    0.11362555562515   -2.03624408434832
H           0.20338750510721    1.37980087151879   -2.24586112752076
C          -3.56357305918465    0.08021065952704   -1.22639928476921
C          -3.24521320139573   -1.02343929554217   -0.22547655667307
H          -2.83315178039125    0.88315714704806   -1.15480954247519
H          -4.54980577483306    0.49734867236332   -1.03342208680091
H          -3.54804421229856   -0.30675631300986   -2.24288236681424
C          -3.26266907555307   -0.51281837845378    1.21299676445352
H          -2.25973373373490   -1.43982278477360   -0.44643124998672
H          -3.97451087093224   -1.83042207546324   -0.32946010089063
H          -2.54258888480276    0.30256570712406    1.31300894374974
C          -2.92388889238006   -1.61170355472894    2.21245839814176
H          -4.25208286151559   -0.10790780761297    1.43887211159094
H          -1.93094135819874   -2.01150954245341    2.01861277859770
H          -3.64058666444594   -2.42719618040402    2.14026346348184
H          -2.94487793099721   -1.22602837734508    3.22933482366607
