28
-27.333437701531
C           1.86398812241209    0.83305058428671    2.40603562631512
C           1.20302912395938   -0.41381851049572    1.83164990952378
H           1.96665929527359    1.59966176808835    1.64033962968835
H           2.85597969025245    0.59912741398008    2.78686400731692
H           1.27112318773839    1.24108132230204    3.22173705732453
C           2.01070989074693   -1.01077987743441    0.68189014361974
H           0.20238366476041   -0.16179080898860    1.47425186637995
H           1.09264550368834   -1.16178371749277    2.62046562616882
H           2.14031152748880   -0.25633036981963   -0.09717933067758
C           1.33104305100220   -2.23853094294182    0.08854667614868
H           3.00448581764608   -1.28530216258773    1.04367884264464
H           0.34486762571075   -1.98213084629909   -0.29367924539586
H           1.21123575816269   -3.01190396497087    0.84443524307938
H           1.92025674757820   -2.64686024859763   -0.72959653903633
C           0.49509076058427    1.00150117055262   -2.61486823015906
C          -0.07789518996957    1.79206946719735   -1.44523961154988
H          -0.20142388867708    0.99800982696743   -3.45077014130699
H           0.68258975865111   -0.02975838372302   -2.32339287893040
H           1.43234757421250    1.43896028440423   -2.95184558641909
C          -1.39172349414259    1.19823790661413   -0.94405124051516
H          -0.24500628209109    2.82720612299514   -1.75250656172054
H           0.64414539497487    1.80402129529297   -0.62580892801352
H          -2.12119957231823    1.19846912202731   -1.75746298877696
C          -1.95187796187850    1.97589674268262    0.24044785900948
H          -1.22671481041068    0.15854068936553   -0.65118063151645
H          -2.14984844305732    3.00816375026642   -0.04057071026010
H          -1.24270898442130    1.97827993427118    1.06579549798397
H          -2.88164646935050    1.53063983634811    0.58760554243693
