42
-41.002772340342
C           2.87200162321389    0.23201521748218    0.44066893824583
C           2.23636459671084    1.60290041141228    0.24524713459457
H           2.19369633356237   -0.55382884089340    0.11614883605717
H           3.10902076713003    0.06650657522501    1.48966893883024
H           3.79132029284827    0.14963546137620   -0.13486796741444
C           0.93828408699756    1.74872277253108    1.03483515461060
H           2.02895077093312    1.75846708495308   -0.81600454302590
H           2.93876026781483    2.37829587056486    0.56049057452852
H           0.24365559221670    0.96457260557799    0.72559318382633
C           0.28830337373669    3.11013700539404    0.82319184183123
H           1.14627147497201    1.60807747004151    2.09868815493840
H           0.04839928909657    3.26000608749995   -0.22719855332982
H           0.95965812162950    3.90664879938651    1.13742986940747
H          -0.63142454988471    3.19028298386823    1.39861160853484
C          -2.11520866710021    1.20953562148385   -1.84690684479787
C          -0.82302251022763    0.91647526923843   -2.59913137384692
H          -1.95626036915374    1.14263161565109   -0.77304094868782
H          -2.88839215638339    0.49522793794901   -2.12237275469792
H          -2.47530921552852    2.20965524764340   -2.07768919967986
C          -0.28731945879132   -0.47955424281184   -2.29281344821261
H          -0.06819254084452    1.65721643704072   -2.32544845983297
H          -0.99874356966251    1.00694707613538   -3.67380769050896
H          -0.12462846813906   -0.57031927842555   -1.21655135821745
C           1.01681705484963   -0.76654668036541   -3.02604806890054
H          -1.03541905562493   -1.22309512289472   -2.57970353005947
H           1.78397813205468   -0.05231149568543   -2.73513046876538
H           0.87341195512079   -0.69464667711601   -4.10223074830543
H           1.37571705965809   -1.76704021238294   -2.79437063607801
C           0.39759695269986   -2.01934282608492    2.68745600425435
C          -0.61183773593081   -2.37658957765819    1.60365060053433
H          -0.03334661404352   -2.17269224423313    3.67468980970316
H           0.69453474706370   -0.97665931843984    2.60234519798987
H           1.28806803077232   -2.63800153719936    2.60148424364215
C          -1.86922944172541   -1.51463824500911    1.68761518145228
H          -0.89089720189847   -3.42858459533081    1.69911704137057
H          -0.15143415283947   -2.24818517663205    0.62085474023584
H          -2.32341069047179   -1.63751443609098    2.67366429879761
C          -2.88453564065741   -1.88100788784394    0.61240036140614
H          -1.59279401263582   -0.46244162685069    1.58378100943866
H          -3.19694082847597   -2.91756707541016    0.72102055959713
H          -2.45229225070077   -1.75621905526339   -0.37766996915886
H          -3.76558859608329   -1.24730077991543    0.68467492620795
