42
-41.002538896079
C           1.64020391626638    1.25888367467123   -2.31614103842755
C           1.93692065724553    0.54998952166303   -1.00048067496406
H           0.59234008351460    1.14318594112743   -2.58510304179607
H           2.24627496822209    0.84393884916988   -3.11885389112245
H           1.85754039826954    2.32159655366570   -2.23658388880068
C           1.64201350517773   -0.94582938240110   -1.07997770006783
H           1.33446736955623    0.99489572046190   -0.20543825436157
H           2.98773228856009    0.69516607757251   -0.73870397017545
H           0.59496496496965   -1.09346064554774   -1.35406567964455
C           1.92408188644172   -1.65362656671845    0.23919141875223
H           2.25274956147501   -1.39160683846806   -1.86874683407790
H           1.30300788830954   -1.24550321737697    1.03403824385033
H           2.96653143401073   -1.52861036142363    0.52464048987270
H           1.71792251876667   -2.71839777874885    0.15525779492402
C          -2.35108994832841   -2.44413895782579   -2.04854441431882
C          -1.84944762450131   -3.21522478262380   -0.83368356139517
H          -1.83039004819040   -1.49349047335356   -2.14267821230200
H          -3.41592068714970   -2.23948911849666   -1.95793345624612
H          -2.18837952169247   -3.01474598166004   -2.96009992841471
C          -2.05245117894873   -2.43314053728196    0.46134409497265
H          -0.78665013997057   -3.43646289213629   -0.95715943193236
H          -2.37927668637071   -4.16845216186611   -0.76604659545370
H          -1.50589559090948   -1.49064020948201    0.39923527408317
C          -1.57615771110635   -3.21032740907408    1.68177839756637
H          -3.11290430897857   -2.19460318925672    0.57437576735397
H          -0.51728286863334   -3.44454853399742    1.59568919015392
H          -2.12543936831034   -4.14454041205314    1.77908437659309
H          -1.72581711593036   -2.62843205793816    2.58861213766353
C          -1.05126319985510    1.46821035874196    1.94375542524490
C          -2.26552905528441    1.51635047169280    1.02459430301839
H          -0.40892698769288    2.33034798460586    1.77500425045361
H          -0.46934657229538    0.56691602951154    1.76091331240987
H          -1.35857022602786    1.46877578221258    2.98706610955347
C          -1.86591629369331    1.53755799626276   -0.44859861748390
H          -2.85643412164852    2.40724642801880    1.24985287884838
H          -2.89636585089102    0.64464669028090    1.21336132996922
H          -1.26060160726092    2.42546040257186   -0.64608212500092
C          -3.08000078741106    1.53386182776991   -1.36852945340739
H          -1.24809363413467    0.66330327011567   -0.66417961888350
H          -3.70438637894333    2.40487381516574   -1.18100607182308
H          -3.67947332375227    0.64125539708590   -1.20286087043135
H          -2.77254408357227    1.55131732552837   -2.41194853114133
