56
-54.672914714737
C          -0.89866653840329    3.14067052078886    1.02260512413970
C          -1.90695357855061    2.25306085673724    1.74179555817175
H          -0.47990009233723    2.62343973816649    0.16245503761527
H          -0.08131353198470    3.40781859040628    1.68926712574945
H          -1.37150916005741    4.05744169096761    0.67698434355143
C          -1.27674064355927    0.94706818001064    2.21786247190768
H          -2.73751027349538    2.02671775778013    1.06925650206680
H          -2.31546199217328    2.78985203409727    2.60140726401598
H          -0.87674641826654    0.40874988893571    1.35583138768216
C          -2.27686291767919    0.05853704507830    2.94614008107878
H          -0.43892473897995    1.17095395101723    2.88176071904089
H          -3.11065747621499   -0.19407426205966    2.29372884009939
H          -2.67328965624863    0.56816297602542    3.82182379108390
H          -1.80287638198049   -0.86470012541144    3.27178095102119
C           3.17357686278776    1.37672853916526   -0.52513122883357
C           2.37501990009287    0.82214031369507    0.64741507227523
H           3.38028336241201    0.59355648274575   -1.25216725202215
H           4.12366833324409    1.78128792652392   -0.18256369339406
H           2.62186126329151    2.17114713922352   -1.02271441767323
C           3.11667519692895   -0.29914364196177    1.36997335314408
H           1.41817865885827    0.44090533842084    0.28410018569523
H           2.16002772263822    1.62703698040037    1.35362729155064
H           3.32063253622326   -1.10769849704957    0.66427918952026
C           2.31621246068845   -0.84248303480107    2.54715942620804
H           4.07825563431185    0.07725313308589    1.72723834142030
H           1.35401492715869   -1.22245645338071    2.21168275343949
H           2.13508480254912   -0.05882302225416    3.27991805594213
H           2.85428837066691   -1.65105522593047    3.03725205950049
C          -3.16317851996814   -0.10343030927713   -1.39177863871843
C          -2.36204270505694    0.95255846333879   -2.14331123143714
H          -2.74484392979591   -0.26678618084119   -0.40129131381385
H          -3.14522447818727   -1.04983480387139   -1.92831206006191
H          -4.19988218936827    0.20726709371041   -1.28119987888495
C          -0.89630997155729    0.55427281131673   -2.29302279262680
H          -2.42291187548014    1.90379759576055   -1.60964583261534
H          -2.79742414159935    1.10187042537860   -3.13431884814870
H          -0.46148580338905    0.41394965774180   -1.30099717687450
C          -0.09112495286344    1.60120899869900   -3.05179235220983
H          -0.83328405506266   -0.40216874597269   -2.81653041530963
H          -0.12353003657148    2.55821616097144   -2.53433856343691
H          -0.49512175304652    1.74227721611343   -4.05208506628408
H           0.94833904108838    1.29380863333046   -3.14182268453178
C           1.55875943338235   -2.58219439052521   -1.68219921005636
C           0.96485954751169   -3.29356131214751   -0.47266506196347
H           1.68469172020105   -1.52153468305521   -1.47751841319643
H           0.90470026390366   -2.68614665210031   -2.54549076432763
H           2.52971039663522   -3.00189443434563   -1.93639430759687
C          -0.38872094691928   -2.70943155030259   -0.07765373353007
H           1.65219546397632   -3.21038328001682    0.37232537998978
H           0.84631144971814   -4.35614794530771   -0.69806645048657
H          -0.26577876573003   -1.64945055152873    0.15515827750469
C          -0.99296971750747   -3.42201013939316    1.12536026484044
H          -1.07447555329201   -2.78131986619565   -0.92464052954977
H          -0.33356076946026   -3.34369605921914    1.98774959486337
H          -1.14358202894823   -4.47733921730254    0.90789052487849
H          -1.95416418688585   -2.98494533916202    1.38643633787655
