56
-54.672580253397
C          -2.45718161050689    0.01105710211307    1.84117809563484
C          -2.06348852385727    1.39709361642486    2.33692414967311
H          -1.61220468992992   -0.47965078247606    1.36340060523036
H          -3.26737267247074    0.08007521783649    1.11776603223861
H          -2.78915147393988   -0.61317990850601    2.66774230798331
C          -1.60707606174990    2.30265559370450    1.19620786167431
H          -1.25631965227004    1.30493849359348    3.06726180610657
H          -2.91510757570869    1.85772855730219    2.84340452518474
H          -0.76504068474608    1.83421006170170    0.68269855414151
C          -1.18822318210287    3.68142156216543    1.69010201123922
H          -2.41928459535513    2.40622504476195    0.47278900189049
H          -0.36086173873571    3.60117953249992    2.39198073449426
H          -2.01670159569217    4.17547672575766    2.19352574701516
H          -0.87095664703249    4.30709080530196    0.85851106104396
C           2.62144537752949    2.16800824880397    1.51464740165370
C           2.17061433792059    1.18695647895659    2.58960707779234
H           1.80541411724167    2.38717281495817    0.83017619097248
H           3.44662611227704    1.75193152549057    0.94014535809959
H           2.95253204484650    3.10271354198996    1.96170065951690
C           1.71778764038297   -0.14346500852129    1.99442098840039
H           1.34704095011221    1.62536738094516    3.15823587734584
H           2.99274079484795    1.00737094479946    3.28666236633909
H           0.90408433739631    0.03856906365133    1.28904043243500
C           1.24490348840959   -1.11767036716847    3.06558098685915
H           2.54539210202720   -0.58838032883902    1.43707244917201
H           0.40209889889830   -0.70333625635354    3.61474048211904
H           2.04500209144984   -1.32569823388731    3.77308638839933
H           0.93046634583679   -2.05806382954127    2.61832474782858
C          -1.83134628776401    0.68551165001862   -2.42480374215198
C          -0.79369055798558    1.78852677224492   -2.59272093220110
H          -1.87487915010085    0.35493309245402   -1.38962438082237
H          -1.58104659871963   -0.17164864509380   -3.04613449480110
H          -2.81820060575051    1.04113359326141   -2.71259573071108
C           0.60755450568034    1.31907474839291   -2.21032015766436
H          -1.06872479943993    2.64351833569054   -1.97060275441700
H          -0.78675636546591    2.12526241407879   -3.63211954490275
H           0.60396112389862    0.98374836164676   -1.17037053673262
C           1.64496904818353    2.42182231285748   -2.37833769398227
H           0.88250016780545    0.46256688447768   -2.82973758291071
H           1.39512830366406    3.27997588654825   -1.75747321723775
H           1.68625165159977    2.75205107258122   -3.41409053043454
H           2.63249842447810    2.06754478973570   -2.09147170070976
C           2.48940660594308   -2.22048586480821   -1.52226144168196
C           1.45446704246070   -3.01934701041332   -0.73979708452628
H           2.48499834069640   -1.17933328737460   -1.20698126903093
H           2.27203372613951   -2.25474436757877   -2.58785597190275
H           3.48681440409705   -2.62441361008120   -1.36345331723931
C           0.04389191777749   -2.47211304025433   -0.94068585859449
H           1.70364807745530   -2.99037799004201    0.32330379948257
H           1.48460460787637   -4.06430250773659   -1.05767245300642
H           0.02152905101955   -1.42393714504216   -0.63661919523365
C          -0.99455759495422   -3.25266699285370   -0.14514057822258
H          -0.20921849697970   -2.51065318284446   -2.00262214673332
H          -0.77573062980536   -3.20641188740459    0.91981835059131
H          -0.99990211889662   -4.29820590490491   -0.44605382866833
H          -1.98921524252746   -2.84347843597022   -0.30758574166725
