70
-68.343423476562
C           1.13713268423090   -3.02317298336365    0.56736976678540
C           2.51889877483025   -2.43103209796950    0.32087765838542
H           0.40058045396591   -2.54642549603608   -0.07514914748336
H           0.83573912111133   -2.87331766454979    1.60209592364956
H           1.13309914077944   -4.09141255676481    0.36131250321459
C           2.55012137534190   -0.93046251101341    0.59823853070439
H           2.81303610256903   -2.61120061185753   -0.71566028818023
H           3.24874011832342   -2.93065112965353    0.96242861208931
H           1.81221264558756   -0.43162977676158   -0.03438532393800
C           3.92576557152566   -0.33095841532867    0.33664171208880
H           2.26687123035433   -0.75136721505215    1.63734393531867
H           4.21501206452405   -0.47569784828393   -0.70232550794327
H           4.67461503863339   -0.80521473006424    0.96765589020950
H           3.92700771984302    0.73631253381252    0.54628503673362
C           0.07649320669467   -0.17784408365198    3.84227259803287
C          -0.07120491411797    1.33656806328206    3.76308891557445
H           1.11448480440440   -0.45195049447995    4.02139272686151
H          -0.24479663154220   -0.64044015397969    2.91155032871776
H          -0.52683261725530   -0.58095562886659    4.65292684815704
C           0.74630359516213    1.93166449081872    2.61938225035894
H           0.25097343791087    1.78321657794851    4.70681159980500
H          -1.12364997277200    1.59138581537393    3.62008385376449
H           1.80258819466710    1.69495793875857    2.76872227423226
C           0.57496868087984    3.44262024214844    2.52439139051560
H           0.43571292973811    1.47130401575356    1.67877965296541
H           0.90527896742581    3.92273565640078    3.44317167846452
H          -0.47039997853892    3.69914391314975    2.36406075809100
H           1.15721577346374    3.84525631986260    1.69857717109606
C           1.88989293283258   -1.20967782576735   -3.52086500352648
C           0.81405373945082   -2.28431996439792   -3.42805426331311
H           2.00846996722550   -0.70788497686397   -2.56324244190024
H           1.62280402228345   -0.46456422736508   -4.26786141401622
H           2.84632988305279   -1.64584000924891   -3.80131792273962
C          -0.53763959909230   -1.70458877566595   -3.01944124239311
H           1.11608658396528   -3.03818034397776   -2.69739948623284
H           0.71386504571364   -2.78344092484310   -4.39487995594469
H          -0.43462586996916   -1.19723286725155   -2.05719085210112
C          -1.60871235530190   -2.78246955262757   -2.91124256216061
H          -0.84716515468888   -0.95790857037348   -3.75419051972416
H          -1.32055667468472   -3.53537235366761   -2.18009957216085
H          -1.75001379659729   -3.27727789692215   -3.86983108554409
H          -2.55962875432941   -2.35269613449151   -2.60430367564825
C          -3.08658559875158    1.70327775520059    1.01626323539711
C          -3.26353579550342    0.25275310774497    1.44648440547997
H          -3.44877390798254    1.84583688347201    0.00043835092896
H          -2.03629601054647    1.98312550584207    1.04575935157262
H          -3.64031171327048    2.36942114774707    1.67458156497346
C          -2.47854207206549   -0.70748932292708    0.55686419799816
H          -4.32349952881314   -0.01013217128667    1.40952837091335
H          -2.93061968272133    0.13479279992472    2.48015853520756
H          -2.80168974682901   -0.58339235871120   -0.47956501853607
C          -2.67428513587550   -2.15799261210658    0.97921051388266
H          -1.41632429361256   -0.45417841004145    0.60476309618846
H          -3.72643463670090   -2.43008919014949    0.92729614887845
H          -2.33415457237310   -2.30681656390839    2.00201918480527
H          -2.11529083589744   -2.82859282456082    0.33136466730973
C          -1.87717373046783    2.09395451702065   -2.87015176422704
C          -0.37371968613542    2.33580317475387   -2.82927668215435
H          -2.39738859627981    2.83101351902982   -2.26181543307097
H          -2.11321129516399    1.10400337277063   -2.48578893694720
H          -2.25094733615100    2.16541390504855   -3.88921727885470
C           0.18333771627600    2.21946370330754   -1.41331747481539
H          -0.15522067555369    3.33205093492565   -3.22104959876087
H           0.12933370499491    1.60975758054136   -3.47167136858659
H          -0.33228030895755    2.93075416732835   -0.76396041724012
C           1.68232496770263    2.48671401228672   -1.36676833489240
H          -0.02190025094071    1.21583468860651   -1.03261358313677
H           1.89982415782862    3.49480045218884   -1.71378125512136
H           2.21676562612587    1.78566803256194   -2.00441305039228
H           2.05920647536261    2.38397785265313   -0.35184091588793
