70
-68.343366839077
C          -3.81797823795341   -1.18657638594763   -0.72392955254112
C          -3.87972120827800    0.23850946972565   -0.18960657830357
H          -3.80805830336078   -1.90024872706713    0.09722531846008
H          -2.91595489376984   -1.33207699880100   -1.31359077322219
H          -4.67975731722700   -1.39932348145435   -1.35300215055554
C          -2.67345838842539    0.57255634378394    0.68375695123107
H          -4.79314215102995    0.36759815233694    0.39594142176926
H          -3.92162385059006    0.94065148843365   -1.02537428631148
H          -2.62557994477451   -0.13356831189858    1.51603158175645
C          -2.74475847062171    1.99412636963207    1.22709914948110
H          -1.76087028344018    0.45243294266929    0.09409504618803
H          -3.64407675483646    2.12750901658107    1.82489510378500
H          -2.76755913089639    2.71447372677229    0.41187980392897
H          -1.88240049657546    2.21393792475066    1.85258637995581
C           0.96937772779899    2.98164233650916    0.20166052567086
C           2.29555420092747    2.34371412746446   -0.19117151377800
H           0.31151102265586    2.24108923017623    0.65019717330057
H           0.47151658286834    3.39795465141102   -0.67147695796697
H           1.12516433871726    3.78254892328827    0.92105681123492
C           2.10524309777390    1.20023901834020   -1.18392314752814
H           2.79355175956043    1.96216960489759    0.70296633987467
H           2.94682178188316    3.10089047366706   -0.63434174790890
H           1.45948816739729    0.44098447980559   -0.73751644576615
C           3.43168429564678    0.56505014142793   -1.58075300045924
H           1.60068558697232    1.57833340356166   -2.07565740492444
H           3.93661196553743    0.15890138625098   -0.70671239588112
H           4.08584136639484    1.30351476838172   -2.03976821158519
H           3.27469874815096   -0.24268848792849   -2.29190285300905
C          -0.53462085767213    0.01697042244642    4.13991955760754
C           0.57432251417015    0.07226891753671    3.09659817738022
H          -0.13564565676610    0.22135813741528    5.13128155054576
H          -0.99499800288882   -0.96914335721478    4.15666853548514
H          -1.30632985942007    0.75208566720701    3.92304166155190
C           1.66326108974421   -0.96203609862777    3.36974352775093
H           1.01789404530903    1.07073303344870    3.08967775081922
H           0.14988611325968   -0.10720268974293    2.10588673589703
H           2.08376748684874   -0.78817748473319    4.36318822482254
C           2.77635033649104   -0.90475428592928    2.33127653241242
H           1.21694160294402   -1.95913259822362    3.37090461076039
H           3.26513900681035    0.06729773783057    2.35004095682752
H           2.37481032839876   -1.06566442655636    1.33347245243275
H           3.52649803527137   -1.66776583298112    2.52842318791492
C          -1.54277850204483    2.20916500946733   -3.03315285149456
C          -1.92243332683610    0.91354429036931   -3.73899128350195
H          -0.59522074210982    2.58694216007279   -3.41244888884065
H          -1.44109861004282    2.04323869166102   -1.96304651462946
H          -2.30241687210529    2.97138727348404   -3.19316290803959
C          -0.88407931945650   -0.18271900177257   -3.51497532388105
H          -2.02546628984060    1.09910372654646   -4.81084574461064
H          -2.89096581724706    0.56915843852033   -3.36950302317970
H           0.08253570793505    0.15073672191102   -3.90034138565755
C          -1.27810874019639   -1.48693924549355   -4.19705698481280
H          -0.76888778609775   -0.35304852420261   -2.44219185610536
H          -1.36924042042779   -1.34296615351155   -5.27164372250482
H          -2.23548681928192   -1.84137822634081   -3.81995241354419
H          -0.53191019384806   -2.25734930124234   -4.01635964052552
C          -1.15036020230425   -3.47041334249603    1.57500366043336
C           0.09159117367941   -3.63073392579241    0.70751923212127
H          -2.04891703130361   -3.65938684335407    0.99125841360741
H          -1.20796387233570   -2.45953237701962    1.97260035809972
H          -1.13036534909809   -4.16852171723925    2.40914240585948
C           0.10233628663302   -2.64318885499053   -0.45591248969317
H           0.13209521164772   -4.64954298611892    0.31490067141709
H           0.98481371806235   -3.47642055048929    1.31702153312331
H          -0.78830425368242   -2.80006653012088   -1.06868270187642
C           1.34628747210051   -2.79476888196052   -1.32201346834257
H           0.05507228500371   -1.62559931242457   -0.05933409989073
H           1.39375556815784   -3.79512899245945   -1.74749183772369
H           2.24644174024668   -2.63353964688377   -0.73223154391859
H           1.33655245865502   -2.07430351874892   -2.13662012469415
