70
-68.343447832170
C          -0.04014900928788    4.25535970838426   -2.30776422549445
C          -0.07585999210618    2.75028002864325   -2.54105411163453
H          -0.95285427774765    4.58766577406261   -1.81681451317122
H           0.04923703795080    4.78592559506377   -3.25335788576969
H           0.80622576402118    4.52698788843826   -1.68073254158671
C          -1.25742902200675    2.33233738623472   -3.41227357800851
H          -0.14205619169508    2.23629398566676   -1.57918972391545
H           0.85392217055930    2.43597025527450   -3.02200025513321
H          -2.18530882873338    2.66418632053357   -2.94074951478614
C          -1.30367035950013    0.82330012224819   -3.61647197162768
H          -1.18342893597268    2.82969206275989   -4.38226830046477
H          -1.40215731776047    0.31511080360190   -2.65996792834397
H          -0.39116391947379    0.47434790654285   -4.09551032018887
H          -2.14851214453268    0.54534932431088   -4.24297842009190
C          -2.80873274830445   -1.24047476569819   -0.00493242293346
C          -2.44967862682134    0.18719827666072    0.38637280985867
H          -2.87982463589533   -1.33410732159782   -1.08686107973848
H          -3.76766074731720   -1.52339184808680    0.42417026563382
H          -2.05465822997998   -1.93803337753997    0.35050712346258
C          -3.48217563403633    1.19414651503208   -0.11322044788295
H          -1.47117980359515    0.44287834750898   -0.02807342115664
H          -2.37716025033401    0.25735497586857    1.47437216023115
H          -3.54508344006787    1.13279356577810   -1.20207576497643
C          -3.13100951878456    2.61881121979992    0.29637789280671
H          -4.46365306638289    0.93188164791144    0.28913025579173
H          -2.15469348984739    2.89674507822676   -0.09370910486931
H          -3.10265896242849    2.70733105737063    1.38032129097261
H          -3.86831163409332    3.32143208179481   -0.08612570719032
C           2.72884543567153   -1.14447037003760    2.61111402719347
C           1.57729178154131   -2.07097267916376    2.98036147866000
H           2.88792680933609   -0.40269106783539    3.39143506725830
H           2.51264756814537   -0.62278157621575    1.68146419989399
H           3.65040250757403   -1.70835535468451    2.48346782497222
C           0.26360863347171   -1.30985887447332    3.13954694231046
H           1.81001507006739   -2.58749479603261    3.91469036316216
H           1.46212329559295   -2.83066837333698    2.20411054282629
H           0.37673643827791   -0.55659077158819    3.92252548605534
C          -0.89475440027715   -2.23446752243219    3.49171802194273
H           0.03737414925971   -0.78555204988082    2.20793615551901
H          -0.70311001710349   -2.74587753063695    4.43269090654139
H          -1.03384388904329   -2.98795015663245    2.71872560966589
H          -1.82063538522847   -1.67201196601950    3.58938010609512
C           0.29937958850692   -4.05128319352835   -0.58408240516417
C           1.39684299477843   -3.10191982429806   -1.04875483007682
H          -0.55841639458620   -3.99952251496121   -1.25153466343511
H          -0.03368252484736   -3.78915354915252    0.41834586421866
H           0.65956486534938   -5.07747362742654   -0.56633835125033
C           0.91775666098046   -1.65342258689611   -1.08759137085519
H           1.73178643558571   -3.39685873587725   -2.04602036064554
H           2.25474137887493   -3.17915431768788   -0.37637234100819
H           0.05419325164592   -1.57955068716959   -1.75231103054142
C           2.00774282169257   -0.70378847241904   -1.56695911169483
H           0.59265000121081   -1.35831637983684   -0.08769290551065
H           2.32660643660042   -0.96631313440292   -2.57360428296952
H           2.87530367587713   -0.75398803691165   -0.91199254603242
H           1.64449301210975    0.32085142230338   -1.57902336546620
C           2.43479783527275    2.65625226975700    0.72709559118523
C           1.02215915698093    2.54882907933559    1.28717824266805
H           3.07283068526169    1.88237812906016    1.14853947866287
H           2.86822749245884    3.62414205114996    0.97073537826872
H           2.43040822730300    2.54597902653010   -0.35499869252980
C           0.99745200042059    2.69539603456074    2.80604653084069
H           0.59550798486540    1.58040788175393    1.01555980926348
H           0.39515962447372    3.32517176748243    0.84254146250006
H           1.59529128376638    1.89769148194704    3.25208779281882
C          -0.42063888063838    2.63805789968045    3.35949395678239
H           1.45643006492418    3.64755520751348    3.08284567573453
H          -0.89369852723990    1.69486150348198    3.09566380193635
H          -1.02105542917999    3.44829842629862    2.95099568781003
H          -0.41459265160228    2.72858878353524    4.44352312802272
