70
-68.343300926505
C           0.62362862297966   -0.09728549106215    3.34434880151736
C           0.22279089498032    1.35098174844048    3.59268077921412
H           1.65222622770609   -0.15307430725534    2.99551468256532
H          -0.01701716128909   -0.54432375057396    2.58793660014153
H           0.53631210287253   -0.68348479679497    4.25636046673124
C           0.33166431367577    2.19355226508218    2.32465939455079
H           0.86416352329041    1.77923655468517    4.36666442160723
H          -0.80553715124846    1.38383549960340    3.96012954592824
H           1.36238428610221    2.16908830276288    1.96369438227785
C          -0.08531152051104    3.63917251880345    2.56260083497573
H          -0.30245496070443    1.75729219328686    1.55027802987044
H           0.54398516168394    4.09832810599659    3.32213464898731
H          -1.11799126235345    3.68816297289693    2.90250840109712
H           0.00375925666516    4.22106765007315    1.64773747948153
C           2.50374795885465   -3.43396221855516   -0.22074381919427
C           2.54893420815866   -2.04844122247790    0.41137404310592
H           3.43153131166164   -3.96990325519653   -0.03178290228591
H           2.36896117773843   -3.35876912105288   -1.29807817124112
H           1.68161247729701   -4.01681413396432    0.18846617373659
C           3.68603020978955   -1.20044809415171   -0.15265294235039
H           2.67320872380077   -2.14758099675785    1.49241542779849
H           1.60003024344066   -1.53697660438262    0.23516796285222
H           4.63895315781162   -1.69808528728038    0.04259622058030
C           3.70834562080144    0.19647450970539    0.45509289738485
H           3.57040798946629   -1.12305416701801   -1.23604526059457
H           3.86412387164564    0.14305628279242    1.53092953494018
H           2.76461493597847    0.70526041517112    0.27070754446018
H           4.51084342226963    0.79117688415891    0.02388594583106
C          -3.52244693843163    2.69978897953132   -1.29217482588793
C          -3.00628205557965    2.14202108790330    0.02813428892378
H          -4.33296563104981    3.40436254449018   -1.11805211659502
H          -3.89913780143149    1.89837264196875   -1.92490954186113
H          -2.72833746451785    3.21594102851692   -1.82728129124809
C          -4.09183528642820    1.39795663212649    0.80107181074884
H          -2.62297145495947    2.96012687847257    0.64227853252089
H          -2.17671361743264    1.45884455203364   -0.16804156073698
H          -4.91904056913708    2.08086482579773    1.00903555730679
C          -3.56330959757208    0.82725735334707    2.11111232804385
H          -4.48146931805934    0.58738105918172    0.18083755682113
H          -3.19566123940672    1.62519698891716    2.75279280233818
H          -2.74416438404903    0.13651408994106    1.92379044139398
H          -4.34771101053713    0.29361626669228    2.64352435733441
C           0.68737793461243    2.73708969590269   -1.54509270508814
C           0.36248652082018    1.28969804003816   -1.89135302970885
H           0.65499127791229    3.35835897041389   -2.43784411574422
H           1.68346184041853    2.81309668580161   -1.11376245814762
H          -0.02823597292036    3.12986069604795   -0.82674138805845
C           1.34620763487494    0.70761664888868   -2.90251102646488
H          -0.64798501847019    1.23294801862297   -2.30292463150944
H           0.38589130634231    0.68433585841135   -0.98152409347576
H           1.32950170857546    1.31471074776605   -3.81082133880499
C           1.00976963740075   -0.73653893290713   -3.25179684215506
H           2.35643122569162    0.75832607817248   -2.49031147598879
H           0.01944041339685   -0.79894392922888   -3.69813457569704
H           1.02024978340645   -1.35543630567675   -2.35755210082089
H           1.73098272497271   -1.13978887356373   -3.95952434813178
C          -2.91355681060623   -1.50005803291203   -1.96570844503216
C          -2.84178063048391   -2.25035604675776   -0.64191607372880
H          -2.23902983069569   -1.94697746780910   -2.69313220540984
H          -2.62746401430874   -0.45979281238490   -1.82921104343700
H          -3.92297639421390   -1.52974430036399   -2.37038153943444
C          -1.43953271328301   -2.21065917184564   -0.04057273267924
H          -3.13564993031517   -3.29108813188538   -0.79792677447346
H          -3.54817745659486   -1.81079825644588    0.06593868971008
H          -0.73117917994886   -2.63969931855766   -0.75299587709165
C          -1.36224795339155   -2.97698047441970    1.27410040765375
H          -1.15123840180194   -1.16914451934482    0.12518552852959
H          -1.63220176893221   -4.01992643145571    1.12154986744230
H          -2.04750132897964   -2.55309620757243    2.00583549663241
H          -0.35529684911179   -2.94023002803779    1.68417221537176
