70
-68.342923875335
C           3.44620095119465   -1.38826722631068    0.21827882905793
C           1.96230518290042   -1.61592822680345    0.47656707731080
H           3.65634094625178   -1.40924669407984   -0.84926768749006
H           4.03991806802981   -2.16451120678288    0.69673992525235
H           3.76218677655344   -0.42413081962419    0.61028257973541
C           1.48978849078218   -2.96436513136334   -0.06029277414906
H           1.38557793468653   -0.81747836426567    0.00367476380116
H           1.76982730155879   -1.56958284723234    1.55011454839057
H           1.70667865863498   -3.02008599002012   -1.12948815294974
C          -0.00178660973666   -3.17504792296441    0.16736774656208
H           2.04957585644702   -3.76370449429038    0.43136139835444
H          -0.57430300201271   -2.39022550263180   -0.32197932121796
H          -0.23371927720451   -3.15552925929374    1.22993199364122
H          -0.32077396801398   -4.13449994378683   -0.23447614870870
C           0.34422788958974    1.60857242705243    3.14926016445772
C           0.60408906272710    0.29647287721278    3.87821045638776
H          -0.60843518030549    2.03425175721423    3.45708326247891
H           0.31489241001763    1.44483468187293    2.07435427281772
H           1.12839205439775    2.33104687549841    3.36465320476107
C          -0.48380972561850   -0.73525661950400    3.59097515724371
H           0.65342907316145    0.47957628626321    4.95424353163382
H           1.57272318724840   -0.10350910125744    3.56811732472932
H          -1.44560184630320   -0.34613250277024    3.93357857792643
C          -0.20584914088584   -2.06747551258499    4.27601175269987
H          -0.55446983056968   -0.88970730604972    2.51215223975893
H          -0.14592489378811   -1.93797098228414    5.35465737653014
H           0.73795192288284   -2.48607445636108    3.93154353780655
H          -0.99682248044412   -2.78311629142476    4.06095251645103
C           1.26822296267930   -0.99859970059671   -3.60562098688969
C          -0.05974060455101   -1.74458308345880   -3.63716434073071
H           1.50451523364695   -0.68723590547072   -2.59056361284872
H           1.22367315760549   -0.11174414266227   -4.23493644608806
H           2.07476287974449   -1.63283240262999   -3.96752070254583
C          -1.20821994022624   -0.88804316733917   -3.11044479659120
H           0.01777102115888   -2.65042998100117   -3.03163164944155
H          -0.28034894508730   -2.05120778671485   -4.66244709819207
H          -0.98213206994166   -0.57267438536647   -2.08898690708955
C          -2.53179151650915   -1.64213423452613   -3.12593672406689
H          -1.29623244357819    0.01301546519241   -3.72163541667866
H          -2.46652337822196   -2.54099497366844   -2.51584131591255
H          -2.78989321528275   -1.93867692392190   -4.14040822909567
H          -3.33485547636245   -1.02078881194982   -2.73600757629763
C          -3.08666232256286    2.67320425757374    1.17230238348948
C          -3.52582631458053    1.25387444207830    1.50862449688657
H          -3.44180687305520    2.95740119717223    0.18404501225782
H          -2.00174241887600    2.74769801708606    1.17997282491109
H          -3.48548360800782    3.38026039525027    1.89641787698857
C          -2.96728687238708    0.23282044333487    0.52137348681444
H          -4.61715735707185    1.20031667626217    1.50112137001996
H          -3.18931010481859    0.99773522754361    2.51566012660112
H          -3.27761241956911    0.50461793105666   -0.49050737208745
C          -3.44242042832652   -1.18000801390075    0.83545598536962
H          -1.87566923910751    0.26594916344680    0.55368961099517
H          -4.52851073915933   -1.23298634196002    0.79767423407029
H          -3.12026347004381   -1.47783718678436    1.83080663003287
H          -3.04077325534845   -1.89117164252405    0.11780393964136
C           2.06975481588404    2.20866600884739   -0.72587224232226
C           0.56562635655514    2.40296641376733   -0.86952113366531
H           2.59437690075154    3.13911659124217   -0.93239061451673
H           2.42747204604032    1.45496629718416   -1.42420441396907
H           2.32167510872347    1.89067173404503    0.28342622114173
C           0.17607702438202    2.84205774907831   -2.27816014114867
H           0.22762437830264    3.15498877359229   -0.15221407733612
H           0.05116046031557    1.46738122117502   -0.63506267703460
H           0.70412094460023    3.76599651607349   -2.52549604152242
C          -1.32523146479345    3.06571058601128   -2.40761408210628
H           0.49336347682014    2.07792805707833   -2.99090992898297
H          -1.65308981068015    3.84984973169582   -1.72836263048036
H          -1.86725447706464    2.15447354359264   -2.16460994447608
H          -1.58380807768607    3.36045397282413   -3.42227957499986
