84
-82.013408629848
C           1.20269279922789   -4.06742748398320    0.22163139977719
C           1.35013675242454   -2.75791772001287    0.98558010436562
H           1.87290538379435   -4.82247808774382    0.62720682784627
H           1.44562315166922   -3.92436836492090   -0.82924293292507
H           0.18353159468545   -4.43930556395754    0.29241461996138
C           2.77278518188046   -2.20993492714746    0.90785608962949
H           1.08187743092069   -2.91702939958226    2.03287123916164
H           0.65998224574201   -2.01717242486759    0.57506665655013
H           3.46510023334870   -2.94388617130636    1.32702948918046
C           2.91733606569863   -0.89132152997686    1.65682790611558
H           3.04283138139696   -2.06417179121979   -0.14096609751887
H           2.68099329966380   -1.02195356883067    2.71108484135374
H           2.24264977486000   -0.14386575105341    1.24513614008382
H           3.93442166659080   -0.51430868235830    1.57965945733458
C          -3.86300964644680    1.07795825378051    0.93833849867496
C          -3.14662255643019    0.55544747124192    2.17710476140188
H          -3.82957997202139    0.34274644880625    0.13685285040429
H          -3.38978789537557    1.99079939096466    0.58297649327030
H          -4.90523774639134    1.29720472865952    1.15935954572088
C          -1.69409256342580    0.18919234880643    1.88507021961231
H          -3.66930167795564   -0.32524564601009    2.55841254979805
H          -3.17571739833635    1.31905905592877    2.95827671791402
H          -1.66803055179233   -0.60725539718913    1.13860529963299
C          -0.95976548630041   -0.26746132602594    3.13889246920719
H          -1.18459127003037    1.05597651669784    1.46046865299458
H          -1.44321789956578   -1.14346054336736    3.56696942946834
H          -0.96064797674283    0.52034183025663    3.88995945214750
H           0.07182625934831   -0.52134841692951    2.90784686138151
C          -3.26178291273768   -2.41725590584708   -2.04218915498447
C          -2.55110375392175   -3.05097429751385   -0.85273860218364
H          -3.63114149813480   -1.42593224346258   -1.78601341357251
H          -4.10994102669772   -3.02605096034387   -2.34824455098442
H          -2.58451692471141   -2.32208434771768   -2.88793411524149
C          -3.46967049924173   -3.18857267792364    0.35880944636557
H          -1.68626588456016   -2.44174995768203   -0.57797787843896
H          -2.17864023833527   -4.03793725152030   -1.13786162867846
H          -3.84992579272189   -2.20281459227796    0.63560853740696
C          -2.74955229519702   -3.80450388538025    1.55205804851759
H          -4.32796705958752   -3.80940300960216    0.09102455090751
H          -1.89275737773349   -3.19719470071522    1.83587162887246
H          -2.39451707358229   -4.80446290923097    1.31024075558827
H          -3.41797220394533   -3.87766592015770    2.40709860473702
C           1.99945876618189    3.77573382873358   -2.28042277200796
C           3.35424514477828    3.29659651797717   -1.77419497813139
H           1.21375748456595    3.50887241997670   -1.57739711150856
H           1.76917464615545    3.31936922409087   -3.24106361401669
H           1.99569073942399    4.85632048219055   -2.40625598482483
C           3.38614985509253    1.78333640838790   -1.57817210982830
H           3.58195497126861    3.78595664795592   -0.82406314007794
H           4.13135822233805    3.58410827904048   -2.48650472493829
H           2.60550216442234    1.49878802046413   -0.86945504890129
C           4.73524252188414    1.30290708806426   -1.05960689271002
H           3.16722516331241    1.29273070762750   -2.52916622190317
H           4.95782730895441    1.75963623071946   -0.09731637475401
H           5.52869815995205    1.56912014822170   -1.75491155898500
H           4.73624758196641    0.22235822032703   -0.93583286596090
C          -0.81402310188038    4.26362613076616    0.89860246783914
C          -0.00730532490040    3.82563249406365    2.11483688499266
H          -1.06438989368834    3.40564079894658    0.27758795990397
H          -0.24380348901558    4.96545474649229    0.29338103881961
H          -1.73918353294093    4.74739469619575    1.20407115163665
C           1.28342033862691    3.11532300815437    1.71536007432918
H          -0.61150898348633    3.15509996208016    2.73013707066792
H           0.23670300240104    4.70020426194324    2.72239947459670
H           1.03771434210358    2.24010879166455    1.10828906647705
C           2.09333769161743    2.67419761429760    2.92741947426405
H           1.88595505498892    3.78611926153219    1.09914507152353
H           1.51800836200212    1.98253211629190    3.53885465561385
H           2.35989597399230    3.53270669906983    3.54036993388180
H           3.00859100170001    2.17569833802141    2.61677355736207
C           0.86041888851000   -1.12537258595473   -2.59683181158238
C           0.02336510247773    0.04596813650919   -3.09439212480919
H           0.22169393315178   -1.89691663498859   -2.17244473335968
H           1.55786187811578   -0.79598049478658   -1.83011746256050
H           1.43012946524206   -1.56442877891170   -3.41317621024646
C          -0.76313917095922    0.70847945213726   -1.96673625837346
H          -0.67375827690149   -0.30517428779904   -3.85918196642233
H           0.67566385696310    0.78871927421405   -3.55933884465093
H          -1.38906592052311   -0.03918792393460   -1.47633760224470
C          -1.64125552262625    1.84200081219040   -2.48068784688215
H          -0.06407681930894    1.09593553995778   -1.22164664858851
H          -2.34708417038107    1.46963943460990   -3.22029762096673
H          -1.03476583033175    2.61608827720889   -2.94613496545155
H          -2.20767990676552    2.29195353528644   -1.66847073721232
