98
-95.683961115459
C          -2.81572686769097   -4.59667398681866   -0.12262833717736
C          -2.08050756234233   -4.63911339308326    1.21121009815696
H          -2.31001853253469   -3.93051782854500   -0.81823608646617
H          -3.83389156933109   -4.23755434213684    0.01332467828014
H          -2.85831667286099   -5.58772352928871   -0.56847222678558
C          -2.01610790830473   -3.26540267377614    1.87381108679788
H          -1.06535447116494   -5.01082784400561    1.05277770855655
H          -2.58705377020385   -5.33722756676076    1.88200177380915
H          -1.49149558000957   -2.57297966041816    1.21163508413172
C          -1.30328631070809   -3.31471463570546    3.21933683059896
H          -3.03100507956379   -2.88634100096438    2.01592551955471
H          -0.28474587752382   -3.67989971021283    3.10095481169060
H          -1.82475413474374   -3.98106447936072    3.90345033285217
H          -1.26274876259499   -2.32536421982541    3.66885580600169
C          -1.17139482206518    0.89205360446085    4.17961863334743
C          -1.95771598478565    0.75537437422002    2.88195713741972
H          -1.22633676510426   -0.02632507150989    4.76132989625691
H          -1.57410941305627    1.70010148792923    4.78708552951679
H          -0.12468136444285    1.10418550543296    3.97453515591602
C          -3.42611534173353    0.42266149872861    3.13231175504234
H          -1.51204249899159   -0.03194299174829    2.26980608639333
H          -1.89509320330718    1.69075939387884    2.32156670155071
H          -3.49468491407121   -0.52407486541217    3.67363087356668
C          -4.21296676346049    0.32200328489313    1.83162237747168
H          -3.86785034258141    1.19687616787864    3.76439058137096
H          -3.79835438016634   -0.45535486730443    1.19363270009969
H          -4.17341972364638    1.26486105007770    1.29017697598331
H          -5.25565470017770    0.08358489572508    2.02959654230882
C           2.15475201641548    3.53578007667738   -1.94134627597056
C           2.66794028674771    2.38457869303554   -1.08570107193571
H           2.63859561641702    3.53285301796628   -2.91636709858804
H           2.36359185964826    4.49114814089696   -1.46375988940564
H           1.08087129064880    3.45377004397560   -2.09087154819502
C           4.17806322862575    2.45795432440278   -0.87557804200477
H           2.42029675350708    1.43788362141431   -1.56923629524339
H           2.16742867714300    2.40098462447523   -0.11567535033553
H           4.67779711801217    2.45344843667963   -1.84761842065199
C           4.69447750493988    1.29585325607869   -0.03680897128078
H           4.42904317997665    3.40102600467523   -0.38362980641477
H           4.46960070334764    0.34792324916243   -0.52057077906022
H           4.22833864468361    1.29958410536355    0.94566371537610
H           5.77194563300776    1.36617319344421    0.09417554071104
C           1.49785240454878   -0.64414303849787    1.46915950045419
C           1.19232541129864   -1.27124864639537    0.11572402255182
H           2.56018540726122   -0.71805771154160    1.69282324623403
H           0.94670708945078   -1.14941345015158    2.25943677814649
H           1.21694581499529    0.40677643521562    1.47008534361631
C           1.56471186576478   -2.75071676943500    0.06907689630222
H           1.74334618882144   -0.73480408103402   -0.65989353641553
H           0.12803379011219   -1.16058029042027   -0.10301389956814
H           2.63940074709561   -2.85776853130755    0.23657852686684
C           1.18996843706642   -3.39159901958892   -1.26156902541193
H           1.05189567596309   -3.27472419912978    0.87844807370681
H           1.70639925158473   -2.90106859567493   -2.08372943726523
H           0.11871405183280   -3.31101222536166   -1.43468134537028
H           1.45892034735236   -4.44549687099941   -1.26979774202331
C          -2.42795656925660   -0.94843082832973   -1.87280458149533
C          -2.67070906997780    0.55525828197905   -1.88908174369519
H          -2.40090093409564   -1.31614782058232   -0.84882101587371
H          -1.48076962692250   -1.18751859601473   -2.35164404363341
H          -3.22152886263757   -1.47221331349790   -2.40129828443668
C          -1.56549345493658    1.32125609914133   -1.16636229186430
H          -3.62946317371895    0.77091113571690   -1.41167852366445
H          -2.73345846050027    0.90216579793938   -2.92344826399214
H          -1.49396872448037    0.96215609867233   -0.13781510118749
C          -1.82796638359082    2.82159031602956   -1.15640163895365
H          -0.60872738129482    1.12430967639604   -1.65490276242089
H          -2.76862411388448    3.04114083905193   -0.65475757252408
H          -1.88854601178805    3.20700370082094   -2.17247111149753
H          -1.03002527141647    3.34584626440188   -0.63580154504943
C           2.71695906980569    3.23722968241826    2.99355737669459
C           1.42641024730433    3.99589621634368    3.27642760593342
H           3.22020619802298    3.65119323749934    2.12250033709247
H           2.50726915232621    2.18648932001599    2.80207208307784
H           3.39379959748678    3.30021061150079    3.84265609354910
C           0.46150953952066    3.94744108618696    2.09428459530991
H           1.66077189758685    5.03817180141028    3.50533353699420
H           0.93886915938955    3.56702265502541    4.15513442934437
H           0.93583144974726    4.40545149873376    1.22281693352312
C          -0.84415201167992    4.67031079470697    2.40076632272520
H           0.24850777478394    2.90466084719513    1.84620227669152
H          -0.65484896377264    5.71547463641805    2.63645853063832
H          -1.34002559922988    4.21286960239702    3.25422613660306
H          -1.51830732556283    4.62859181437255    1.54820571657405
C           3.66928168383214   -0.70049341035440   -3.59527413417957
C           2.47265801053254   -0.85140069296217   -4.52672562124175
H           3.43485138665395   -1.08534763153631   -2.60445219173780
H           3.94808267306360    0.34650405237297   -3.49839247577893
H           4.52637645878515   -1.24946299130077   -3.97883768824268
C           1.25194404157180   -0.08494291718533   -4.02305065689143
H           2.21785072843258   -1.91001328769602   -4.62336140570731
H           2.74031524152464   -0.48603476302142   -5.52099706524528
H           0.98167509551827   -0.45289371789451   -3.03001716225776
C           0.05842944461155   -0.23640624412776   -4.95752483449229
H           1.50505169296661    0.97365876587986   -3.92872137264440
H          -0.22879393199736   -1.28244980454911   -5.04480887428778
H           0.30249778801141    0.13393744590917   -5.95102914912548
H          -0.79475994554406    0.32379015337973   -4.58275352689904
