112
-109.354912898361
C          -3.87846691018749    2.28556969609269    0.55778509277997
C          -2.88735146782080    1.14415754342719    0.74545628379516
H          -4.14607963540695    2.39210139641508   -0.49180446851515
H          -3.44568594646041    3.22560398487719    0.89405071247502
H          -4.78789496591322    2.10372146261746    1.12618781233513
C          -1.60363667940821    1.37166517553830   -0.04708987742708
H          -3.34676829460623    0.20683620400496    0.42280270649686
H          -2.64362749756663    1.04716337389265    1.80592729799228
H          -1.85265913862073    1.47496420020714   -1.10549227134222
C          -0.61598024320981    0.22655754147680    0.12989058349775
H          -1.14058178839155    2.30645489666935    0.27603982013784
H          -1.05926998442418   -0.71200656045210   -0.19608032700704
H          -0.33453474240021    0.12147443587992    1.17550371897811
H           0.28625160712944    0.40173410661588   -0.45311356588268
C          -0.49418354589396   -2.34830103352949    3.52695266513786
C          -1.97030401696476   -2.25564772572363    3.16231807794281
H           0.12639225935167   -2.03806787487632    2.68934338709639
H          -0.22768140668014   -3.37113663286597    3.78565965577753
H          -0.26917462424816   -1.71014031363285    4.37802147150578
C          -2.31552344183929   -3.12524215029274    1.95628483559004
H          -2.22621720087694   -1.21755482353806    2.93877357049213
H          -2.57569584171000   -2.56857200998551    4.01641460970881
H          -1.72727025261937   -2.79391178462331    1.09726361080605
C          -3.79816446526876   -3.05923236947238    1.61297634413281
H          -2.03784508116702   -4.16094256447764    2.16725177660937
H          -4.09220157929543   -2.03581132289070    1.38992334702192
H          -4.39877412870672   -3.41079996917484    2.44929048113939
H          -4.02041158476578   -3.67815387255111    0.74658983909517
C           1.56788723971631   -3.19132909769353   -0.00011533020255
C           1.37837018898954   -3.65435076845610   -1.43950466148623
H           0.80070179410192   -3.61860082016714    0.64221965392332
H           1.50219394951925   -2.10685562346189    0.06577110758296
H           2.54027841625859   -3.50097527387789    0.37760806454337
C           0.03147105752745   -3.21600621130279   -2.00871818925605
H           1.45027324698442   -4.74376261313539   -1.48200688895148
H           2.17858122618333   -3.24747587419027   -2.06181366155007
H          -0.77183453241789   -3.62984619632947   -1.39403128917039
C          -0.15218318346931   -3.66901888392738   -3.45112122354937
H          -0.03990636741143   -2.12730830766077   -1.96341518577079
H          -0.10598106962921   -4.75379825308044   -3.52099785314525
H           0.62980757998061   -3.25363380969098   -4.08367258390629
H          -1.11500149879234   -3.34030453089996   -3.83516332576513
C           2.96988334191350    4.00536163379864   -0.92155114773444
C           1.47427899687731    3.83560508247656   -1.15497510586044
H           3.25293455203946    5.05236118518047   -1.00778306093683
H           3.53804988017900    3.43848463875954   -1.65649727967180
H           3.24502078055055    3.65576624030600    0.07056605296171
C           1.05246686930714    4.32371903265915   -2.53833848725437
H           0.92446077144355    4.39232541762918   -0.39277630475230
H           1.20789812957263    2.78157625306480   -1.05098920754688
H           1.33555729750806    5.37296588127335   -2.65110611703674
C          -0.44760923259167    4.17780323073818   -2.75992909727032
H           1.58875451973553    3.75258526784262   -3.29949093894693
H          -1.00120801479608    4.75402787515125   -2.02141986589102
H          -0.74501708769581    3.13575009653324   -2.67092285537504
H          -0.72691286894202    4.52979133819371   -3.75035857576218
C           0.79824066990988    3.29764340529486    2.62415958592798
C           0.63813213268935    2.74627601732505    4.03509547290896
H          -0.10488378266129    3.82047066339885    2.31532455375757
H           0.98564307398839    2.49178990015310    1.91839100401322
H           1.63124788247296    3.99544449399809    2.57561920586518
C          -0.53139135663123    1.77075577618835    4.13792497678706
H           0.47956388033576    3.57195619208263    4.73302648275534
H           1.55736284470606    2.23610963495527    4.33074258158151
H          -1.45349306738369    2.28343967588139    3.85322933557993
C          -0.67946149744676    1.20312060418919    5.54358953215819
H          -0.37782205278725    0.94974135883817    3.43394469688712
H          -0.85674405501183    2.00123095718646    6.26150404747217
H           0.22568827100019    0.67547554935076    5.83775357076347
H          -1.51469071824445    0.50759178799514    5.59083511383109
C           1.19877943960677    0.45391022265155   -3.67685475976333
C           2.39832191792462    0.05472290717409   -2.82729195573916
H           0.71375814367641   -0.42660998485081   -4.09299665522632
H           1.50925170140373    1.09344469645754   -4.50068665384391
H           0.47008106682404    0.99711928986297   -3.08003358941773
C           3.44860440503765   -0.69808141048201   -3.63920989432467
H           2.06529098002505   -0.57935159816871   -2.00292506086090
H           2.85236991696977    0.94818746014142   -2.39276160119399
H           2.99151784974135   -1.58566468570578   -4.08396806281838
C           4.63786781545541   -1.11549697518898   -2.78319210774932
H           3.79539357151700   -0.06262922256816   -4.45762293480046
H           4.31707406374097   -1.77308817396954   -1.97769086508814
H           5.11382011798868   -0.24312040784915   -2.34050399731823
H           5.37651776260943   -1.64345044643499   -3.38214025318728
C          -2.75003937187161    1.04959321346328   -4.26068060173845
C          -2.67920768621237   -0.31129919335700   -3.57937103970129
H          -2.93150476509003    1.83597627935177   -3.53018259711097
H          -3.55938586514976    1.07105405191133   -4.98741754247852
H          -1.81842709025077    1.26932120636952   -4.77723924249231
C          -3.96445964584022   -0.64084020805674   -2.82479036763642
H          -1.84046527886428   -0.32617499385110   -2.88045338549825
H          -2.49402342083791   -1.08186027462284   -4.33141109884187
H          -4.15895498282563    0.14184512757203   -2.08806832935103
C          -3.87944827860875   -1.98777748248639   -2.11837838103265
H          -4.80271188285956   -0.64913727079437   -3.52559019084283
H          -3.05917587106815   -1.99190233946785   -1.40417376505450
H          -3.70849630041314   -2.78723498999328   -2.83641846425076
H          -4.80239546899433   -2.19960919930399   -1.58324986501160
C           3.13241809140710   -0.63001564271625    4.45813029035161
C           2.86014467925438   -0.47176865815604    2.96793898792407
H           3.11781547937952    0.33755607159048    4.95617607241880
H           4.10913034526145   -1.08041392357731    4.62211944947936
H           2.38012120615220   -1.26653202113433    4.91843991747693
C           3.89300176165226    0.42178807370243    2.28636426935839
H           1.86685780347453   -0.04166745414748    2.82558583761603
H           2.86635719962801   -1.45618179930676    2.49420511188083
H           3.86337793339857    1.41635068521787    2.73797163674466
C           3.64093858918451    0.53683690512693    0.78864918345467
H           4.89154362819876    0.01166041691377    2.45519709441000
H           2.65879544854163    0.96412595723462    0.59859672919281
H           3.68473092843529   -0.44302984479801    0.31887235040885
H           4.38759494528692    1.17393997806520    0.32056359326415
