112
-109.354192102107
C          -3.21547690208626    2.66145948251464    0.22852809546602
C          -2.64005070625005    1.27818394240429   -0.04640982983528
H          -2.81192939839614    3.39192219562252   -0.47039320041393
H          -2.97197412540666    2.98402439933344    1.23887452316440
H          -4.29869249344683    2.65382399628091    0.12682357252863
C          -1.11924090503198    1.25074894673060    0.07802043123437
H          -2.92166865602777    0.96339544254512   -1.05416078104029
H          -3.07216591332502    0.56353871171499    0.65663310170469
H          -0.68972174842620    1.99032308229617   -0.60127483800413
C          -0.54891707461098   -0.12338032004671   -0.24728489600359
H          -0.83565587061376    1.53015221419700    1.09526063001516
H          -0.80453779648697   -0.41110276363074   -1.26495755879489
H          -0.94791210562483   -0.87674228237583    0.42932694263992
H           0.53557367901175   -0.12268274698755   -0.15651051984728
C           2.59507576304190   -0.38477045984476   -3.30184818219483
C           3.57708882776509    0.67855113862433   -2.82711777323070
H           1.82447317698077    0.05919061703981   -3.92737364541051
H           2.11334900888922   -0.86416800558350   -2.45247534370284
H           3.10692454287428   -1.15067407065203   -3.88014012739199
C           2.89431982018211    1.75324014809344   -1.98462882670950
H           4.05143450710178    1.14779143847772   -3.69230977334460
H           4.36453869545374    0.20479075951723   -2.23656660084023
H           2.12295162144939    2.24261105005416   -2.58421725509105
C           3.88380434113723    2.79692302771538   -1.48248622212084
H           2.40303179099011    1.28241744971983   -1.13016384328586
H           4.37092487473012    3.29468757178402   -2.31836993856868
H           4.65283388438033    2.32982242415949   -0.87027278242319
H           3.37705392811144    3.54845848146745   -0.88221114207417
C          -3.79918822869138   -2.41157488711097   -1.85593834584892
C          -4.76293181146546   -1.96050120335390   -0.76554713399202
H          -3.67223016504951   -3.49206737277646   -1.83204467443579
H          -2.82428302583687   -1.94983883570291   -1.71592545066793
H          -4.17272519507770   -2.13205879618199   -2.83855397760315
C          -4.26753899758152   -2.34392430293472    0.62646493084506
H          -5.74306301163919   -2.41210367578201   -0.93596537556049
H          -4.88604853546934   -0.87615018705381   -0.81687952514808
H          -4.17555349019128   -3.43042692190270    0.68954042933872
C          -5.20249284910615   -1.84915854764956    1.72237777137276
H          -3.27314076621424   -1.92041782244712    0.78225328167121
H          -6.19259460041546   -2.28497671848858    1.60655503590230
H          -5.30145182127769   -0.76614979162895    1.67865233326393
H          -4.82010198313781   -2.11988306448702    2.70392579035239
C           4.60638642602234   -2.36084386484886    0.48024271677912
C           3.85220200732370   -1.05011998049267    0.66150534201051
H           4.04877661796845   -3.18520648609337    0.91979686151438
H           5.58009964685167   -2.31114604093680    0.96324416403907
H           4.75904856943234   -2.57313158335696   -0.57593281408381
C           3.63167795294035   -0.71306982790446    2.13337162570558
H           2.88484045216002   -1.11938471311127    0.15874504089154
H           4.41315101857685   -0.24004721411683    0.19057513862891
H           3.07397455301705   -1.52326704628960    2.60877160219573
C           2.87476619808594    0.59752985697793    2.30876186543136
H           4.60049937788473   -0.64178909978458    2.63366651376217
H           1.88734214932506    0.53289523918737    1.85709143942536
H           3.41357919705308    1.41693803839176    1.83722246474912
H           2.75142602128471    0.82941545115707    3.36408410667509
C          -1.22524808985726   -0.89686624836014   -4.51724669358208
C          -1.91917078290093    0.43521070538561   -4.26003844320721
H          -0.61006877471123   -1.18165714906467   -3.66596505061400
H          -0.58078879708263   -0.83002679739985   -5.39127603607561
H          -1.95553292351536   -1.68419787272324   -4.68925009446716
C          -0.92165377266590    1.55992474685720   -3.99299124160116
H          -2.58782759415787    0.33594748428433   -3.40160139511202
H          -2.53316174989638    0.69630573331732   -5.12523124499537
H          -0.31602460003142    1.30232507219345   -3.12129937042569
C          -1.61703840429308    2.89341303043677   -3.74921668123294
H          -0.24874083429698    1.65375756959943   -4.84925554493554
H          -2.28278336846246    2.82437705956117   -2.89203346852898
H          -2.20766037012790    3.18068959745191   -4.61671398178649
H          -0.88817095276911    3.67782615458313   -3.55671034446316
C           0.78059738018168    3.89782674852822    2.85382413574565
C           1.20482724690285    4.10801188937211    1.40586506257539
H          -0.17930760355997    3.38703906850877    2.89938266388889
H           0.68019190468346    4.85232811430277    3.36616195902025
H           1.51499748164116    3.29734419106629    3.38538259514686
C           0.18853962099725    4.94353481914231    0.63153073149288
H           1.31833797545895    3.13775382296453    0.91778124094597
H           2.17683775596661    4.60672941374273    1.38293124856958
H          -0.78846345576329    4.45997404461838    0.69028556380429
C           0.58015206379712    5.10988015603014   -0.83137580608680
H           0.09919169405039    5.92735740196940    1.09828315545745
H           0.66573649924196    4.13879328640660   -1.31465427669410
H           1.53820518798718    5.61864957779417   -0.91736342166635
H          -0.16636999768665    5.69519926104684   -1.36397710924205
C           1.12015401596166   -3.67787891814520   -1.12654381399884
C           0.69654253177642   -3.77201711745624    0.33377509428244
H           0.46747907479490   -2.99643492863719   -1.66865739260603
H           1.06252413230077   -4.65366704836555   -1.60405807308205
H           2.14239869969393   -3.31688369337438   -1.20910104011847
C          -0.73405793546707   -4.28558407444090    0.47605756359702
H           0.77500558393142   -2.78660842332351    0.79848960722839
H           1.37486055680083   -4.44206820373948    0.86740674295502
H          -1.40710802782651   -3.63434687305682   -0.08582386886755
C          -1.18175507359952   -4.34161936510845    1.93129287743265
H          -0.80012136852365   -5.28391838845033    0.03695495114333
H          -1.17344547542882   -3.34819618083736    2.37383127667387
H          -0.51707739759737   -4.97866735311267    2.51126070371139
H          -2.19084689199051   -4.74000733576169    2.00735692590237
C           0.29573888445932   -1.31756041264575    4.23369922079265
C          -0.60222023446179   -0.09638353964545    4.38468599050797
H           0.46339727372215   -1.53922638316801    3.18196271571548
H          -0.16118077999731   -2.18885390353989    4.69897542549776
H           1.26075739289686   -1.14485698600130    4.70423295117863
C          -1.97433784089403   -0.31433168723799    3.75206109649334
H          -0.12209645207486    0.76608388713234    3.91638149232495
H          -0.72859393281663    0.13244155780211    5.44559314298005
H          -1.84898696727240   -0.53016675815981    2.68903866128650
C          -2.87634390096396    0.90175841952512    3.91705699456013
H          -2.44989301155185   -1.18415440573315    4.21197432893597
H          -2.42336460603737    1.77721216371177    3.45644510757581
H          -3.03701358488583    1.11824568594257    4.97112931380157
H          -3.84370533115714    0.73028849124331    3.45087091641175
