126
-123.025918865333
C           3.06152586561025    1.22367671039004   -0.45902774147195
C           1.93728581994430    0.19800906250802   -0.40350268696355
H           3.26376529311893    1.62295946462985    0.53276304100108
H           2.78914702264358    2.05211249278585   -1.11005418354407
H           3.97430024661637    0.77253325437101   -0.84241121231039
C           0.63987617507870    0.79929664172889    0.12849223818558
H           2.23807937472960   -0.63132827552755    0.24083382550010
H           1.76474246099575   -0.20253163858236   -1.40522473422183
H           0.80917686382828    1.16814943701532    1.14296306701472
C          -0.49614436411956   -0.21487246004997    0.14243693914486
H           0.36004803425906    1.65188957520859   -0.49460116040235
H          -0.24390042091279   -1.06144121375915    0.77712264126467
H          -0.68884444077707   -0.58601166347996   -0.86152439737901
H          -1.41161435880722    0.23478960361993    0.52106119041010
C           0.22001701796071   -2.16013409124097    4.26151619927974
C           0.90720349044013   -0.96546520914224    3.61344708475243
H          -0.28922709840364   -1.85713950290126    5.17396602101816
H           0.94789140867092   -2.92778493082102    4.51624595694890
H          -0.51467698330643   -2.59318987058424    3.58629369566619
C           1.94051355387915   -0.32536257486374    4.53645265679240
H           0.15650076800034   -0.21921240339614    3.34476795111321
H           1.40294203947308   -1.28836931122829    2.69525656842596
H           1.44627021953805    0.01660753941640    5.44867376256748
C           2.64437379907823    0.85107877815358    3.87108568753204
H           2.68033684002177   -1.07657658948227    4.82388133566411
H           1.92893022617508    1.63204743424886    3.62168829655474
H           3.13797303112528    0.53243106103827    2.95494116544013
H           3.39500729089149    1.27563256238309    4.53403739415499
C           3.27232212480637    4.55911627705300    2.06395490723335
C           1.85101138821389    4.58508550440980    1.51647668740856
H           3.67579293808282    5.56753641091158    2.12708136128413
H           3.92071844076425    3.97390760207972    1.41499906681277
H           3.29324658885219    4.11798826720369    3.05800054062508
C           1.79019733700464    5.17506556666981    0.11002695834170
H           1.21653280120422    5.17331156640732    2.18351004014861
H           1.45302380348034    3.56874677196268    1.49155488850580
H           2.20477307013731    6.18584556575619    0.12308586579859
C           0.36518439839761    5.21831433041025   -0.42693363602428
H           2.41252825203737    4.57323258017782   -0.55660252459023
H          -0.25576930630763    5.86263567849214    0.19242207036279
H          -0.07189133537706    4.22248197105951   -0.42785762615518
H           0.34813481156568    5.60299611752544   -1.44441259732933
C           3.94373743422152   -3.31241109217604    2.49851370589549
C           3.76184886734009   -3.38139871500922    0.98761513248228
H           3.89704440873973   -2.28112340583672    2.84158958858270
H           4.90937049378092   -3.72275226920429    2.78664586042488
H           3.16496234571419   -3.87930088816230    3.00393261830518
C           4.81981047536028   -2.56745856426746    0.24667268057098
H           2.76993332455251   -3.00844839342901    0.72376637324964
H           3.81495542564054   -4.42282353939063    0.66202928592814
H           4.76742661554171   -1.52611792002081    0.57384377818260
C           4.63550313394743   -2.63260738156871   -1.26448783984671
H           5.81122917895848   -2.94474180174003    0.50852746351331
H           3.66372963488184   -2.23582488142652   -1.54858621423072
H           4.69869435118580   -3.66157827212670   -1.61222882851323
H           5.40469178644454   -2.05288677287862   -1.77006445258502
C          -1.63184068365442    2.74045344359581   -2.86851873709303
C          -0.25764893172787    2.52449851557619   -3.49028272467577
H          -1.74588342827421    2.13305888532358   -1.97340145898646
H          -2.41583423144221    2.46151064493896   -3.56948245531606
H          -1.77191647225241    3.78380584270280   -2.59552758643598
C          -0.03250092088813    1.06647752684543   -3.88275015308680
H           0.51529861165826    2.82844454256199   -2.78031822267906
H          -0.15536566221105    3.15596107562774   -4.37605018391743
H          -0.15364465672578    0.43643568459183   -2.99905311104167
C           1.35291653029948    0.84075842117953   -4.47454763311370
H          -0.79147545147280    0.76773615680140   -4.61031353528654
H           2.12367315283260    1.10708232372369   -3.75426761689562
H           1.49242404415999    1.45096459941623   -5.36445137265088
H           1.48661421487891   -0.20290310939497   -4.75087182831345
C           0.32649498625300   -3.05412205426708   -3.01995269836422
C           0.66626843799902   -3.50434525539849   -1.60506206583949
H          -0.43547325325662   -2.27791402834232   -3.00145240746734
H          -0.05265170274248   -3.88743215770257   -3.60771548969977
H           1.20942771765567   -2.65813057715658   -3.51728095392077
C          -0.54652833469435   -4.07376084605375   -0.87409472035650
H           1.05285078721021   -2.65333224024466   -1.04128608727798
H           1.45259310863329   -4.26170246818022   -1.64287440537454
H          -1.33701148176946   -3.32008079752145   -0.84848290226413
C          -0.20330222691629   -4.49558196693600    0.54926880936966
H          -0.92933395091590   -4.93549542403662   -1.42641266486220
H           0.15326722907159   -3.64441467241671    1.12567753133178
H           0.57763873371106   -5.25298973878171    0.54530996111959
H          -1.07681230605523   -4.90480355960246    1.05152829980794
C          -3.53890639670526   -2.72324925168967   -3.84368669175874
C          -4.36338140855128   -1.64488841975621   -3.15169635478376
H          -3.10825898998473   -3.40250527173492   -3.11102120025072
H          -2.72716186781377   -2.27650637964028   -4.41422279436983
H          -4.15831500488405   -3.30138591954514   -4.52550718622179
C          -3.52386834830384   -0.82323167196212   -2.17704251299332
H          -5.18945689160260   -2.11298854361591   -2.61039577562448
H          -4.79724364523140   -0.97991490094085   -3.90232787928474
H          -3.08719161269414   -1.49035315486313   -1.43037275102941
C          -4.34866788625819    0.24771902286031   -1.47485945279813
H          -2.70433491751068   -0.34854941166891   -2.72128122259212
H          -5.18270513743646   -0.20191676793596   -0.93923358439107
H          -4.75173931160791    0.95497321090876   -2.19677441581458
H          -3.73823342820991    0.79657131651257   -0.76150692940613
C          -3.34411384196682   -0.66922629654269    3.30318217731147
C          -4.19430172356099   -1.47747979263408    2.33134426348310
H          -2.45003201306300   -0.29831278264662    2.80686305723954
H          -3.03468959428307   -1.28520621383027    4.14479951141245
H          -3.90503978368355    0.17989201412368    3.68842855955038
C          -3.42811845616357   -2.66690381046492    1.75852391438465
H          -4.51978284981324   -0.83305631660776    1.51158500944722
H          -5.08919415982469   -1.83778633848380    2.84442732870098
H          -2.54546352406974   -2.30108446099331    1.22967830138346
C          -4.28522736363987   -3.49258707026634    0.80731229261604
H          -3.08334593986512   -3.30144151241024    2.57884939751613
H          -4.64208324457571   -2.87766025611750   -0.01564628555561
H          -5.14984221926010   -3.89945649706611    1.32776823131103
H          -3.71317605595991   -4.32025733839235    0.39371080781014
C          -1.24892004445850    2.85563701147579    3.44032939541864
C          -2.08988610233166    3.77881058694159    2.56793422595923
H          -0.44374071832725    2.41560177756810    2.85596582926213
H          -1.85697664232796    2.04980928309640    3.84562517164764
H          -0.80915954721727    3.40448028748622    4.27001866631991
C          -2.68065329458179    3.04746849826434    1.36530864287457
H          -1.46955767824605    4.60444850015936    2.21285175871196
H          -2.89967507795492    4.20495063084026    3.16476910152133
H          -1.86591741240557    2.62922507764164    0.76985718035147
C          -3.52020996860025    3.97074158006831    0.49149351836764
H          -3.29847261587609    2.21719888655739    1.71626554103106
H          -2.91485415264612    4.79289538114667    0.11590355034491
H          -4.34723056191673    4.38778090052037    1.06221559824978
H          -3.92874625549433    3.43011754182829   -0.35929508982998
