21
-366.37676455241
C    -1.1374266   -1.2080587    0.7689215 
C    -0.3613402    0.0340157    1.1959129 
H    -0.6662059   -2.1198852    1.1439624 
H    -1.2019067   -1.2665648   -0.3184027 
H    -2.1603824   -1.1834337    1.1524047 
H     0.6797728   -0.0392648    0.8642841 
H    -0.3332806    0.0989408    2.2882272 
C    -0.9517859    1.3358962    0.6466115 
O    -1.0635068    1.3080566   -0.7747056 
C    -0.1665224    2.5563468    1.1115404 
H    -1.9857633    1.4217584    0.9968954 
H     0.8685372    2.4984091    0.7633589 
H    -0.1538980    2.6257693    2.2019481 
H    -0.6116612    3.4673933    0.7101537 
H    -0.1731220    1.2562647   -1.1523784 
C     1.5607425   -2.2870539   -1.9477335 
C     1.5996940   -0.8353986   -1.9142859 
H     2.5660196   -2.6935577   -1.8342533 
H     0.9338192   -2.6540842   -1.1344065 
H     1.1448706   -2.6284212   -2.8959974 
N     1.6133460    0.3128716   -1.8720576 
