21
-366.37589709904
C    -0.2194271    0.4050100   -2.4275576 
C    -1.4328202    0.7108956   -1.5497836 
H    -0.3829327    0.7692300   -3.4431103 
H    -0.0201878   -0.6657940   -2.4903612 
H     0.6876800    0.8876198   -2.0564136 
H    -2.3120783    0.1945490   -1.9481586 
H    -1.6521947    1.7810461   -1.5883406 
C    -1.2794687    0.3257157   -0.0748105 
O    -0.2782741    1.1193469    0.5724974 
C    -1.0208185   -1.1618559    0.1446899 
H    -2.2055394    0.5982683    0.4379087 
H    -0.0614458   -1.4631519   -0.2795866 
H    -1.8032372   -1.7668958   -0.3193615 
H    -1.0049676   -1.3857055    1.2125962 
H     0.5656978    0.9633607    0.1294345 
C     1.9144993   -0.2451386    2.7469295 
C     2.4001037   -0.1786884    1.3792480 
H     1.7831337   -1.2844929    3.0490135 
H     2.6216723    0.2350632    3.4236056 
H     0.9539696    0.2691858    2.7968703 
N     2.7466359   -0.1075681    0.2846904 
