27
-499.12676366034
C     1.3771526    1.1472423   -0.5948425 
C     1.8626909   -0.2426008   -0.9999133 
H     1.4478174    1.8381865   -1.4369884 
H     1.9697886    1.5651097    0.2211000 
H     0.3347479    1.1209496   -0.2772928 
H     2.8989282   -0.1910940   -1.3498846 
H     1.2692418   -0.5958791   -1.8481507 
C     1.7904038   -1.3054794    0.1036307 
O     0.4635011   -1.4609809    0.6091730 
C     2.6838035   -1.0107526    1.2969749 
H     2.1142093   -2.2579949   -0.3386095 
H     2.3883064   -0.0822502    1.7882609 
H     3.7260562   -0.9196973    0.9855306 
H     2.6095612   -1.8175358    2.0270926 
H    -0.1519125   -1.5740034   -0.1347418 
C    -3.3697987    0.4361499   -2.2702878 
C    -2.3554345   -0.5091566   -1.8417922 
H    -4.3112905   -0.0833086   -2.4513192 
H    -3.5073311    1.1794275   -1.4831846 
H    -3.0537577    0.9304698   -3.1894367 
N    -1.5499761   -1.2486107   -1.4896598 
C    -1.1373017    0.6439436    2.4426850 
C    -2.0343808    1.2461319    1.4726576 
H    -0.4883736    1.4093615    2.8701594 
H    -1.7138020    0.1814111    3.2446381 
H    -0.5234834   -0.1158775    1.9488584 
N    -2.7393662    1.7168386    0.6953425 
