27
-499.12748163753
C    -0.6520156   -0.0228412    1.9362972 
C    -0.4050494    1.4071027    1.4660678 
H    -0.1302231   -0.2232716    2.8740510 
H    -0.2999313   -0.7446232    1.1997520 
H    -1.7174335   -0.2040695    2.1031623 
H     0.6628569    1.5545983    1.2739259 
H    -0.6782494    2.1117739    2.2579054 
C    -1.1830171    1.7869431    0.2050807 
O    -0.9256915    0.8845972   -0.8722312 
C    -0.9120795    3.2246722   -0.2214777 
H    -2.2531090    1.6718198    0.4088029 
H     0.1501957    3.3631210   -0.4390166 
H    -1.1926364    3.9280872    0.5661758 
H    -1.4793710    3.4654220   -1.1212379 
H     0.0340216    0.8466070   -1.0268049 
C     3.4474421   -1.8129323   -0.6693774 
C     2.6021277   -0.6551958   -0.8956654 
H     2.8107917   -2.6924021   -0.5593198 
H     4.1219750   -1.9533164   -1.5145651 
H     4.0372637   -1.6720668    0.2368991 
N     1.9204764    0.2523691   -1.0727483 
C    -1.7593631   -2.2052327   -1.1156772 
C    -0.4840767   -2.8443386   -0.8441913 
H    -2.4950878   -2.5205078   -0.3747721 
H    -1.6379425   -1.1184812   -1.0668608 
H    -2.1127896   -2.4884186   -2.1078203 
N     0.5309157   -3.3394159   -0.6263543 
