27
-499.12606266847
C     1.6579768   -2.5778293   -0.3970811 
C     0.9302713   -1.2361629   -0.3503363 
H     1.9934957   -2.8739177    0.5984675 
H     2.5401313   -2.5255966   -1.0411614 
H     1.0167836   -3.3746269   -0.7775362 
H     1.5651195   -0.4933871    0.1403018 
H     0.0247305   -1.3202911    0.2586577 
C     0.5448045   -0.6824317   -1.7246136 
O     0.0471065    0.6523776   -1.6091087 
C    -0.4526925   -1.5607886   -2.4704444 
H     1.4541302   -0.5883931   -2.3275509 
H    -1.3653688   -1.6843065   -1.8811845 
H    -0.0416579   -2.5507728   -2.6753668 
H    -0.7186521   -1.0965825   -3.4207326 
H    -0.7950173    0.6237361   -1.1230112 
C    -2.7569421    0.9697423    2.7795090 
C    -2.4648616    0.7722278    1.3717648 
H    -3.0143297    0.0172652    3.2438848 
H    -1.8723823    1.3870041    3.2633987 
H    -3.5945084    1.6585566    2.8938967 
N    -2.2179224    0.6194041    0.2603663 
C     1.4771212    2.7471271    0.4064542 
C     0.8183136    2.4453070    1.6649381 
H     1.0825935    2.0953335   -0.3796684 
H     1.2998625    3.7887502    0.1358620 
H     2.5518106    2.5871834    0.5033573 
N     0.2900840    2.2010715    2.6569371 
