33
-631.87395679682
C     0.7105038   -2.5461731    0.8717448 
C     2.0291426   -1.7832751    0.7641067 
H     0.6526330   -3.0760370    1.8237741 
H     0.6048870   -3.2863082    0.0766627 
H    -0.1487800   -1.8769015    0.8235982 
H     2.8685590   -2.4850616    0.8101021 
H     2.1367866   -1.1172951    1.6251131 
C     2.1916029   -0.9331415   -0.5012533 
O     1.2463161    0.1426577   -0.5325904 
C     2.1317529   -1.7386639   -1.7932702 
H     3.1654319   -0.4387793   -0.4426750 
H     1.1446477   -2.1831091   -1.9336176 
H     2.8690995   -2.5443987   -1.7841907 
H     2.3359411   -1.0935134   -2.6488451 
H     0.3712352   -0.2008261   -0.7864032 
C    -3.7398604    0.3594634    0.0739153 
C    -2.5209685   -0.0393872   -0.6015970 
H    -4.6081664    0.1047904   -0.5342591 
H    -3.7936764   -0.1451927    1.0383677 
H    -3.7089994    1.4371249    0.2414855 
N    -1.5440529   -0.3384868   -1.1277458 
C    -0.1122861    2.7154906   -1.9660001 
C    -1.0631632    3.0010651   -0.9060903 
H     0.6625290    2.0433374   -1.5910594 
H    -0.6231644    2.2230747   -2.7936900 
H     0.3393317    3.6419279   -2.3221354 
N    -1.8118996    3.2156629   -0.0595780 
C     0.0733613    1.4728617    2.2876816 
C    -1.0163435    0.5429466    2.5244000 
H     0.6462070    1.1435658    1.4172529 
H    -0.3332793    2.4646873    2.0901581 
H     0.7259199    1.5133901    3.1605695 
N    -1.8812480   -0.1954961    2.6960684 
