33
-631.87374359519
C     1.9402839   -2.4017971    2.6459220 
C     0.6481594   -1.9925694    1.9444377 
H     1.7484750   -2.6706611    3.6859857 
H     2.6670095   -1.5852803    2.6428037 
H     2.4074590   -3.2631649    2.1658430 
H     0.1612519   -1.1927403    2.5093833 
H    -0.0561488   -2.8299672    1.9234627 
C     0.8483070   -1.4982119    0.5173877 
O    -0.4196766   -1.0021574    0.0741579 
C     1.3637782   -2.5700282   -0.4332395 
H     1.5689572   -0.6674430    0.5335341 
H     0.6821253   -3.4237786   -0.4449667 
H     2.3553011   -2.9175455   -0.1384937 
H     1.4375428   -2.1739406   -1.4476614 
H    -0.3232982   -0.6891320   -0.8426575 
C    -3.2812890    0.1527308   -0.8295145 
C    -2.8888947    1.5501134   -0.7720257 
H    -2.6407131   -0.4363805   -0.1712082 
H    -4.3235578    0.0439569   -0.5284490 
H    -3.1580744   -0.2192730   -1.8468248 
N    -2.5660198    2.6530777   -0.7244571 
C     0.0402280    2.8828753   -2.9877990 
C    -0.1107549    1.4678873   -2.7122059 
H    -0.7192460    3.4297953   -2.4269738 
H     1.0258750    3.2089204   -2.6566818 
H    -0.0813390    3.0736072   -4.0543701 
N    -0.2436554    0.3512401   -2.4752347 
C    -0.0239511    1.9879295    1.4700274 
C     0.9962006    2.3864092    0.5165180 
H    -0.8586655    2.6870905    1.4264714 
H    -0.3844304    0.9907663    1.2082504 
H     0.3912502    1.9753733    2.4783204 
N     1.7975107    2.6922978   -0.2497420 
