33
-631.87346744854
C    -1.9746924    1.4467894    1.6243233 
C    -1.4004671    2.1163514    0.3795206 
H    -2.9291039    1.8975941    1.9026982 
H    -1.3009907    1.5484218    2.4767106 
H    -2.1466355    0.3829487    1.4505812 
H    -1.2667834    3.1888893    0.5534522 
H    -2.1107066    2.0133217   -0.4477425 
C    -0.0585051    1.5377480   -0.0693616 
O     0.9554227    1.7274719    0.9219651 
C     0.4459853    2.1915840   -1.3448413 
H    -0.1854793    0.4615012   -0.2410621 
H     0.6564129    3.2477917   -1.1643336 
H    -0.2986632    2.1238108   -2.1403476 
H     1.3641221    1.7143558   -1.6910581 
H     0.8338514    1.0626688    1.6181431 
C    -1.1818915   -1.1457170   -2.6813051 
C    -1.9052947   -1.4373459   -1.4560706 
H    -1.6359527   -1.6754291   -3.5192930 
H    -1.2074341   -0.0746716   -2.8825109 
H    -0.1442547   -1.4619923   -2.5656786 
N    -2.4636769   -1.6728323   -0.4788541 
C     3.3572488   -0.2874162    0.1557476 
C     2.4519306   -1.1734802   -0.5532874 
H     4.2500305   -0.1075740   -0.4438491 
H     2.8411602    0.6539764    0.3600906 
H     3.6444418   -0.7392238    1.1053432 
N     1.7222221   -1.8652339   -1.1120881 
C    -0.2394220   -3.0412547    1.5519624 
C     0.3092462   -1.7870131    2.0307234 
H    -0.1282384   -3.8142655    2.3127640 
H    -1.2930263   -2.9063884    1.3068126 
H     0.2908131   -3.3360748    0.6455469 
N     0.7483307   -0.7893121    2.3952989 
