39
-764.62281302407
C    -2.6617460   -2.3625567    1.2350665 
C    -1.4100601   -3.2275621    1.3631625 
H    -3.2850586   -2.4576797    2.1258370 
H    -3.2705407   -2.6500408    0.3759497 
H    -2.3991147   -1.3098375    1.1264412 
H    -1.6909557   -4.2779473    1.4909346 
H    -0.8677170   -2.9422449    2.2694911 
C    -0.4353857   -3.1405141    0.1831853 
O     0.0242970   -1.8015596   -0.0190938 
C    -1.0213194   -3.6112795   -1.1368405 
H     0.4276115   -3.7763629    0.4237138 
H    -1.8589875   -2.9813129   -1.4395873 
H    -1.3737945   -4.6412410   -1.0568177 
H    -0.2648928   -3.5661600   -1.9215508 
H     0.3341977   -1.4322509    0.8290440 
C     2.2309426   -0.0372261   -1.7446190 
C     2.6914718    0.9975023   -0.8367934 
H     1.6839703    0.4307351   -2.5640545 
H     3.0854830   -0.5838287   -2.1453980 
H     1.5711671   -0.7337603   -1.2213740 
N     3.0501536    1.8272584   -0.1254432 
C     1.2260977    4.4839807   -1.1267906 
C     0.8338279    3.4966792   -2.1165218 
H     0.4573618    4.5401590   -0.3558277 
H     2.1636727    4.1721397   -0.6661445 
H     1.3507758    5.4596589   -1.5970664 
N     0.5229344    2.7035527   -2.8893300 
C     1.4635632    2.1927748    2.7649087 
C     1.1394778    0.8119386    2.4669745 
H     0.6177615    2.8195301    2.4802836 
H     1.6752650    2.3081562    3.8281778 
H     2.3340561    2.4819462    2.1753024 
N     0.8815304   -0.2794057    2.2185284 
C    -1.6534142    0.8256880   -1.0534163 
C    -1.3199109    1.8692073   -0.1016187 
H    -1.1675886   -0.1100021   -0.7643651 
H    -2.7336121    0.6771655   -1.0769086 
H    -1.3054390    1.1245912   -2.0428015 
N    -1.0460813    2.7001091    0.6453626 
