45
-897.36789896294
C    -1.3465029   -3.7121382   -0.2680834 
C    -0.3898478   -3.4273687   -1.4222267 
H    -2.2358072   -4.2390097   -0.6188221 
H    -1.6727762   -2.7952961    0.2234777 
H    -0.8686328   -4.3349041    0.4921773 
H    -0.8884116   -2.8248219   -2.1887970 
H    -0.1053290   -4.3701891   -1.9000794 
C     0.8878301   -2.6978624   -1.0071490 
O     0.6042852   -1.3826794   -0.5170297 
C     1.8560393   -2.5439210   -2.1675443 
H     1.3766004   -3.2725629   -0.2087755 
H     1.3877053   -1.9845014   -2.9808092 
H     2.1553717   -3.5193305   -2.5537856 
H     2.7519069   -2.0077695   -1.8513543 
H     0.2206511   -1.4354523    0.3784179 
C    -1.1679548    0.4544584    4.0414534 
C    -0.7922680   -0.4218801    2.9513068 
H    -0.2614133    0.8139733    4.5299341 
H    -1.7261821    1.2980394    3.6327428 
H    -1.7893531   -0.0841222    4.7574518 
N    -0.4916040   -1.1018877    2.0761219 
C    -2.5066489    0.1644473   -0.6558636 
C    -2.4799726    1.1432767    0.4155429 
H    -2.7655137    0.6581830   -1.5918999 
H    -1.5239213   -0.2969985   -0.7627317 
H    -3.2399058   -0.6101429   -0.4293926 
N    -2.4622405    1.9171780    1.2661314 
C     1.2882430    1.3050987   -2.3610551 
C    -0.0136549    1.9242276   -2.5311117 
H     1.6919348    1.0104185   -3.3303384 
H     1.9618292    2.0164223   -1.8836287 
H     1.1879897    0.4213893   -1.7274352 
N    -1.0516189    2.4065418   -2.6478088 
C    -1.0009673    4.6368899   -0.0249904 
C     0.3336100    4.0686003    0.0239399 
H    -0.9542393    5.7145487    0.1340310 
H    -1.4414063    4.4262756   -1.0001542 
H    -1.6218496    4.1737386    0.7419232 
N     1.3891164    3.6131824    0.0517938 
C     2.7453097    0.7760743    1.3463486 
C     2.3736290    0.8874272    2.7457101 
H     3.8051813    0.5319031    1.2627500 
H     2.1588883   -0.0073447    0.8630514 
H     2.5504377    1.7255170    0.8451326 
N     2.0714630    0.9823723    3.8514277 
