45
-897.36830474157
C     2.6561211   -3.4612377    0.2550554 
C     1.3078367   -2.7514625    0.1678955 
H     2.7617900   -3.9728311    1.2129148 
H     3.4809885   -2.7498040    0.1667303 
H     2.7752504   -4.2080548   -0.5315092 
H     1.1910414   -2.0884948    1.0284158 
H     0.4935195   -3.4818206    0.2187565 
C     1.1309923   -1.9183034   -1.0949032 
O    -0.0992165   -1.1918813   -0.9489781 
C     1.1093742   -2.7424119   -2.3744763 
H     1.9582425   -1.1977469   -1.1543956 
H     0.3121153   -3.4881567   -2.3306809 
H     2.0597610   -3.2551834   -2.5308078 
H     0.9323382   -2.0983456   -3.2375834 
H    -0.1829083   -0.5998988   -1.7174594 
C     0.8372337    3.3323862   -2.9322179 
C     0.3261385    1.9760621   -2.9426376 
H     1.9175714    3.3055329   -2.7909366 
H     0.5909738    3.8344307   -3.8681342 
H     0.3855699    3.8691766   -2.0965020 
N    -0.0880058    0.9042837   -2.9291405 
C    -2.7006306    1.0608293   -0.8322549 
C    -1.8668798    2.1717667   -0.4113168 
H    -3.6029256    1.0340561   -0.2223285 
H    -2.9565513    1.1691474   -1.8857987 
H    -2.1528264    0.1281890   -0.7013436 
N    -1.2020663    3.0479598   -0.0741020 
C    -1.7461934    2.6933981    3.3324646 
C    -2.7952685    1.8494385    2.7894271 
H    -1.3828047    3.3604791    2.5499957 
H    -2.1304838    3.2824397    4.1655061 
H    -0.9268755    2.0617992    3.6780580 
N    -3.6132753    1.1730100    2.3465287 
C    -1.9154558   -1.7502870    1.8109449 
C    -0.9779315   -0.9695365    2.5977220 
H    -1.5566609   -1.8035188    0.7814660 
H    -1.9960644   -2.7584534    2.2184244 
H    -2.8927101   -1.2672665    1.8392171 
N    -0.2342700   -0.3382026    3.2071493 
C     1.5045403    1.1513172    0.8985823 
C     2.3953607    1.6122609   -0.1510558 
H     2.0680712    0.6959005    1.7117348 
H     0.9278025    1.9888985    1.2874584 
H     0.8115067    0.4149109    0.4908320 
N     3.0858646    1.9752253   -0.9967163 
