45
-897.36686501720
C     0.8600787    0.8086720   -3.5317237 
C     0.6566230    2.1526979   -2.8350550 
H     1.8435140    0.7618004   -4.0026021 
H     0.1169902    0.6418962   -4.3132977 
H     0.7900833   -0.0194876   -2.8252030 
H     0.6451542    2.9576931   -3.5769975 
H     1.5039789    2.3589906   -2.1741547 
C    -0.6210103    2.2531376   -1.9938372 
O    -0.5849226    1.3268247   -0.8992148 
C    -1.8938271    1.9867916   -2.7796731 
H    -0.6721980    3.2690460   -1.5848107 
H    -1.9165085    0.9625913   -3.1542589 
H    -1.9677963    2.6625739   -3.6338422 
H    -2.7669611    2.1356820   -2.1436567 
H    -0.0253056    1.7090163   -0.1995914 
C    -1.6906084   -1.7704661   -1.3664267 
C    -0.4179274   -2.4580998   -1.2501585 
H    -2.1160125   -1.9373074   -2.3565625 
H    -2.3725063   -2.1538788   -0.6067931 
H    -1.5320244   -0.7010516   -1.2151133 
N     0.5971155   -2.9888014   -1.1423974 
C     2.4022340   -0.4881927   -0.1353720 
C     2.0177266   -0.8708100    1.2100683 
H     3.2588348    0.1849166   -0.0994169 
H     2.6452197   -1.3786645   -0.7134140 
H     1.5682910    0.0230882   -0.6156034 
N     1.7043164   -1.1632662    2.2776581 
C    -1.7607873   -0.0053278    2.0071085 
C    -1.7002570    0.9282171    3.1173790 
H    -1.8459081    0.5384216    1.0654256 
H    -0.8473697   -0.5994046    1.9865702 
H    -2.6048529   -0.6845680    2.1207630 
N    -1.6254200    1.6673748    3.9957729 
C     1.6299367    2.0200993    3.7646863 
C     1.3056076    2.1969667    2.3633324 
H     0.7693865    2.3083906    4.3686548 
H     1.8493873    0.9660038    3.9414926 
H     2.4969722    2.6256645    4.0296523 
N     1.0429752    2.3137263    1.2511073 
C     0.3278531   -4.2702237    2.0247162 
C    -1.0095156   -3.7542463    1.7928231 
H     0.2764040   -5.2198513    2.5579348 
H     0.8266232   -4.4117084    1.0654933 
H     0.8997859   -3.5489090    2.6088148 
N    -2.0633728   -3.3360180    1.5997229 
