36
-600.03072749459
C    -1.4243325    3.1590993   -2.6134059 
C    -1.0343619    2.2741036   -1.4315621 
H    -0.9360510    4.1326534   -2.5461243 
H    -2.5035590    3.3319591   -2.6373570 
H    -1.1370156    2.7130688   -3.5669170 
H    -1.2383756    2.8067989   -0.4983617 
H     0.0406161    2.0685613   -1.4478545 
C    -1.7785318    0.9393747   -1.3861060 
O    -1.4347298    0.2106748   -0.1962375 
C    -1.4611057    0.0259288   -2.5556077 
H    -2.8584145    1.1383122   -1.3697419 
H    -0.3864631   -0.1613038   -2.6099331 
H    -1.7836112    0.4697837   -3.4975449 
H    -1.9722759   -0.9297451   -2.4349515 
H    -1.6376772    0.7541927    0.5825481 
C     1.0434915   -3.4797235    2.1821880 
C     0.7383419   -2.0527169    1.7319843 
H     0.5258326   -3.7134416    3.1142689 
H     2.1144982   -3.6184235    2.3544311 
H     0.7290068   -4.2149478    1.4398167 
H     0.9614914   -1.3576561    2.5465858 
H    -0.3294180   -1.9461918    1.5152200 
C     1.5297301   -1.5953481    0.5041061 
O     1.3126883   -0.2050496    0.2602317 
C     1.2224036   -2.4135762   -0.7451755 
H     2.5988148   -1.6798709    0.7275711 
H     0.1542379   -2.3728005   -0.9720471 
H     1.5058799   -3.4600245   -0.6198048 
H     1.7716165   -2.0106441   -1.5970993 
H     0.3651882   -0.0789270    0.0501770 
C     1.3706189    1.8861183    2.7080757 
C    -0.0619040    1.8822021    2.4775460 
H     1.8292443    1.2592284    1.9389790 
H     1.7596095    2.9026870    2.6439409 
H     1.5939428    1.4802981    3.6952115 
N    -1.1894263    1.8553457    2.2529498 
