42
-732.77857672529
C     3.2029545    3.5375880   -0.8475908 
C     2.5064654    2.2276205   -1.2087591 
H     4.2492739    3.5182396   -1.1566199 
H     3.1803324    3.7112963    0.2314584 
H     2.7328701    4.3946103   -1.3326576 
H     3.0690954    1.3901082   -0.7857811 
H     2.4995270    2.0852648   -2.2938525 
C     1.0687608    2.1319366   -0.7021990 
O     0.5374875    0.8246706   -0.9716860 
C     0.1221464    3.1291046   -1.3443907 
H     1.0698232    2.2915444    0.3850219 
H     0.1202277    3.0019090   -2.4296135 
H     0.4202073    4.1525063   -1.1159164 
H    -0.8936538    2.9787322   -0.9773904 
H     1.1078543    0.1605874   -0.5426512 
C    -2.0795706   -2.2328526    2.4760969 
C    -1.9501282   -1.4978287    1.1442959 
H    -2.0147588   -3.3132717    2.3313567 
H    -3.0414373   -2.0237918    2.9520157 
H    -1.2949887   -1.9434976    3.1780196 
H    -2.6661893   -1.9086586    0.4283727 
H    -0.9579862   -1.6679920    0.7193899 
C    -2.1858052    0.0129118    1.2191590 
O    -2.1377347    0.5816465   -0.0877579 
C    -1.2200732    0.7257204    2.1604273 
H    -3.2093843    0.1863751    1.5683405 
H    -0.1843724    0.5198677    1.8777727 
H    -1.3581560    0.4044207    3.1940788 
H    -1.3840539    1.8032094    2.1147669 
H    -1.2029397    0.6450525   -0.3660707 
C     1.3825775   -3.7743540    0.9996047 
C     1.6845972   -2.3921075    0.6815561 
H     0.7722866   -4.1870651    0.1941823 
H     2.3045268   -4.3479909    1.0974200 
H     0.8277818   -3.8234682    1.9371376 
N     1.8999182   -1.2948193    0.4184759 
C    -1.3337303   -1.2501694   -2.7181496 
C    -0.8352995   -2.4970466   -2.1659838 
H    -0.5189308   -0.5282146   -2.7843691 
H    -1.7586128   -1.4228276   -3.7073210 
H    -2.0911592   -0.8299671   -2.0536345 
N    -0.4397490   -3.4789993   -1.7165547 
