42
-732.78024295471
C    -2.2253003    1.7615962    2.6638403 
C    -2.2605447    0.2439326    2.8218878 
H    -3.0958504    2.2209139    3.1354212 
H    -2.2218854    2.0607730    1.6151532 
H    -1.3318554    2.1846474    3.1306198 
H    -3.1548175   -0.1648601    2.3408023 
H    -2.3291029   -0.0109112    3.8841852 
C    -1.0425915   -0.4754376    2.2475439 
O    -0.9514273   -0.3048845    0.8261878 
C    -1.0867042   -1.9712369    2.5047384 
H    -0.1370930   -0.0570575    2.7094682 
H    -1.9875679   -2.4021856    2.0621061 
H    -1.0970179   -2.1757940    3.5763686 
H    -0.2211897   -2.4661089    2.0645999 
H    -0.8113540    0.6311083    0.5935017 
C     2.3335976    0.3302620   -2.1992089 
C     2.5910266    0.0512915   -0.7225341 
H     2.5615284    1.3693458   -2.4473073 
H     1.2939287    0.1379804   -2.4613105 
H     2.9584454   -0.3038280   -2.8335402 
H     1.9663590    0.7064345   -0.1065623 
H     3.6305894    0.2898902   -0.4750012 
C     2.3221419   -1.3998796   -0.3189158 
O     0.9798607   -1.7868588   -0.5979375 
C     2.6733905   -1.6540469    1.1434846 
H     2.9358072   -2.0538945   -0.9474318 
H     2.0863208   -1.0038665    1.7978447 
H     3.7305846   -1.4557438    1.3343211 
H     2.4619887   -2.6904477    1.4098831 
H     0.3708207   -1.2527054   -0.0509975 
C    -0.0612308    3.3026608   -2.7587625 
C    -0.2479901    2.6931770   -1.4563410 
H    -0.4455768    2.6191973   -3.5179325 
H    -0.6008901    4.2487548   -2.8092998 
H     0.9992346    3.4848513   -2.9336037 
N    -0.3991769    2.1974544   -0.4316903 
C    -1.7568810   -1.5426609   -2.1750050 
C    -1.5963542   -0.3939561   -3.0479881 
H    -2.0686250   -1.2083898   -1.1843804 
H    -2.5016643   -2.2236605   -2.5879365 
H    -0.7998271   -2.0542985   -2.0627098 
N    -1.4631067    0.5184420   -3.7355614 
