48
-865.52809698863
C     3.4922565   -1.2121654   -0.4960135 
C     3.1738205   -0.0744161    0.4709265 
H     3.9446654   -2.0513108    0.0352513 
H     4.1897291   -0.9025854   -1.2764492 
H     2.5855514   -1.5771534   -0.9800590 
H     4.0936748    0.2815823    0.9461537 
H     2.5360337   -0.4548218    1.2733255 
C     2.4680796    1.1330509   -0.1572485 
O     1.2123775    0.7675242   -0.7314875 
C     3.2748295    1.8203572   -1.2458807 
H     2.2897163    1.8594694    0.6481373 
H     3.4347309    1.1521689   -2.0932284 
H     4.2477302    2.1367375   -0.8650128 
H     2.7441893    2.7021604   -1.6081828 
H     0.6838800    0.2743406   -0.0642753 
C     0.0189498   -1.6200394    3.8796273 
C    -1.2550413   -1.1011216    3.2172347 
H    -0.2131477   -2.4033700    4.6033543 
H     0.5500259   -0.8289244    4.4122621 
H     0.6974615   -2.0389036    3.1351350 
H    -1.9053817   -0.6322939    3.9628941 
H    -1.8199734   -1.9415913    2.8026957 
C    -1.0250588   -0.0943544    2.0881089 
O    -0.2656813   -0.7013880    1.0243716 
C    -0.2787189    1.1567417    2.5160531 
H    -1.9977264    0.2035892    1.6870095 
H     0.7411608    0.9217191    2.8243251 
H    -0.7893797    1.6368396    3.3522892 
H    -0.2323426    1.8694132    1.6918612 
H    -0.8546475   -1.3038012    0.5353022 
C    -1.2979998    2.6166135   -1.7295660 
C    -2.3265392    2.0730127   -0.8611852 
H    -1.2302662    3.6966324   -1.5929185 
H    -0.3368024    2.1548652   -1.4868860 
H    -1.5475477    2.3949265   -2.7671300 
N    -3.1368367    1.6355294   -0.1718679 
C     0.1072030   -1.3049851   -2.9541865 
C    -1.0787233   -0.6130736   -3.4246143 
H     0.6938313   -1.6620168   -3.8012177 
H     0.7092332   -0.6219625   -2.3487042 
H    -0.1910852   -2.1521842   -2.3360779 
N    -2.0185226   -0.0531773   -3.7810132 
C    -4.4262392   -1.0020883   -1.5890264 
C    -3.2321980   -1.5717985   -0.9971976 
H    -5.2060518   -1.7600996   -1.6661704 
H    -4.7656533   -0.1738794   -0.9672476 
H    -4.1792897   -0.6196556   -2.5801999 
N    -2.2782760   -2.0141127   -0.5332715 
