48
-865.52630478059
C     1.7952090    3.0547056   -3.0432393 
C     1.0153301    2.1352738   -2.1075232 
H     1.1743753    3.8918400   -3.3658507 
H     2.1217091    2.5205265   -3.9391623 
H     2.6816830    3.4695770   -2.5609308 
H     0.0878287    1.8180676   -2.5906026 
H     0.7264043    2.6787103   -1.2022920 
C     1.7810652    0.8849257   -1.6959875 
O     0.8636988    0.0601266   -0.9565586 
C     3.0178954    1.1701214   -0.8559628 
H     2.0785620    0.3433626   -2.6034602 
H     2.7512099    1.7479332    0.0319636 
H     3.7584637    1.7335738   -1.4255730 
H     3.4831423    0.2398230   -0.5278475 
H     1.2943061   -0.7946038   -0.7677499 
C    -2.8400140    2.1914986    1.4149241 
C    -2.2911886    1.6683653    0.0893731 
H    -2.5462292    3.2301458    1.5767652 
H    -2.4634634    1.6049964    2.2573819 
H    -3.9297714    2.1503990    1.4480881 
H    -1.2132042    1.8440316    0.0494509 
H    -2.7258316    2.2202224   -0.7495933 
C    -2.5309031    0.1749398   -0.1388076 
O    -1.8879871   -0.2662487   -1.3339669 
C    -4.0002016   -0.1849814   -0.2732041 
H    -2.1158533   -0.3713790    0.7213528 
H    -4.4436640    0.3554348   -1.1124911 
H    -4.5539538    0.0592163    0.6336932 
H    -4.1108734   -1.2539955   -0.4609247 
H    -0.9307087   -0.0839280   -1.2650702 
C     0.4805383    0.3118126    2.3595230 
C     1.8232986   -0.0726793    2.7554501 
H     0.4612178    0.4906587    1.2831798 
H    -0.2115989   -0.4984406    2.5910442 
H     0.1756027    1.2159624    2.8869612 
N     2.8866224   -0.3941626    3.0540082 
C    -1.2556777   -3.3377705   -0.5372003 
C    -0.9935026   -3.1018755    0.8708903 
H    -1.9998987   -4.1263211   -0.6526153 
H    -1.6184298   -2.4155216   -1.0013138 
H    -0.3302439   -3.6377140   -1.0299431 
N    -0.7713784   -2.9043963    1.9824413 
C     2.6576247   -3.5221971    2.1290688 
C     2.3671521   -2.8936833    0.8560449 
H     1.7216773   -3.6504564    2.6747560 
H     3.1277526   -4.4930916    1.9709864 
H     3.3168302   -2.8734456    2.7056710 
N     2.1153780   -2.3893590   -0.1451474 
