54
-998.27428476652
C    -1.0893526   -3.6789463   -0.7682046 
C    -1.3863203   -3.3030834    0.6802887 
H    -0.9020105   -4.7493068   -0.8689793 
H    -0.2155089   -3.1503050   -1.1467887 
H    -1.9334456   -3.4264295   -1.4146448 
H    -0.5628973   -3.6142153    1.3322581 
H    -2.2739181   -3.8390757    1.0285792 
C    -1.6193234   -1.8126459    0.8855661 
O    -0.4035227   -1.1235125    0.5724805 
C    -2.0708417   -1.4762060    2.3010748 
H    -2.3957874   -1.4862965    0.1811458 
H    -1.3330401   -1.8236372    3.0288832 
H    -3.0274219   -1.9514670    2.5299487 
H    -2.1890910   -0.3973135    2.4158039 
H    -0.6236802   -0.1763493    0.4349711 
C    -1.9876977    0.2677279   -2.3172294 
C    -2.7305723    1.2444611   -1.4091839 
H    -2.6887189   -0.3815697   -2.8451439 
H    -1.3092886   -0.3710771   -1.7535247 
H    -1.4004915    0.8047432   -3.0648877 
H    -3.3195418    0.7009990   -0.6623768 
H    -3.4433920    1.8216925   -2.0044669 
C    -1.8332918    2.2344830   -0.6805425 
O    -1.0315540    1.5008297    0.2660247 
C    -2.6266868    3.3115421    0.0447197 
H    -1.1577190    2.7021144   -1.4049354 
H    -3.3203541    2.8600599    0.7577330 
H    -3.1990665    3.9112679   -0.6662300 
H    -1.9584345    3.9797380    0.5906298 
H    -0.3850083    2.1151988    0.6566149 
C     2.4757807   -2.9042486    0.5322256 
C     2.6488273   -3.1641554   -0.8866517 
H     1.5626245   -2.3259769    0.6853347 
H     2.4020624   -3.8453811    1.0782978 
H     3.3256140   -2.3351280    0.9094552 
N     2.7723929   -3.3484062   -2.0150522 
C     1.8178989   -0.0869399   -1.9377877 
C     1.5513166    1.3169956   -2.1902052 
H     1.8443718   -0.6476562   -2.8714171 
H     2.7795526   -0.1884815   -1.4361174 
H     1.0421400   -0.5057936   -1.2961672 
N     1.3513617    2.4334322   -2.3824020 
C     1.6375777    0.3561356    2.7285876 
C     2.7154281    0.4873791    1.7653641 
H     1.2089825    1.3385294    2.9271671 
H     0.8627367   -0.2910003    2.3117423 
H     2.0148414   -0.0709622    3.6582512 
N     3.5585814    0.5825095    0.9885640 
C     3.2241784    3.8621003   -0.1205754 
C     2.0023653    3.5596272    0.5970832 
H     3.6973623    4.7504658    0.2984372 
H     3.9005468    3.0103541   -0.0355810 
H     2.9847371    4.0239538   -1.1713383 
N     1.0366983    3.2992267    1.1632015 
