54
-998.27394077538
C     0.7599969    1.1593777   -3.5342063 
C     0.9639978   -0.3322905   -3.2749597 
H     0.0101788    1.3141969   -4.3120878 
H     1.6796986    1.6440729   -3.8663481 
H     0.4193606    1.6726391   -2.6338542 
H     1.3529390   -0.8178767   -4.1739882 
H     0.0036765   -0.8093186   -3.0656064 
C     1.9038367   -0.6626686   -2.1204587 
O     1.3180283   -0.1234325   -0.9223566 
C     3.3203870   -0.1331187   -2.2974597 
H     1.9392923   -1.7522229   -2.0280874 
H     3.3304644    0.9560443   -2.3611691 
H     3.7683345   -0.5379480   -3.2076383 
H     3.9462228   -0.4292906   -1.4535449 
H     1.8855215   -0.3211151   -0.1544290 
C    -3.3596761   -1.6263953   -0.1693230 
C    -2.6925037   -0.9558865   -1.3681134 
H    -3.4982768   -2.6924381   -0.3550099 
H    -4.3409226   -1.1981725    0.0429676 
H    -2.7498430   -1.5213672    0.7290470 
H    -3.3731138   -0.9678034   -2.2257020 
H    -1.8167264   -1.5356403   -1.6681628 
C    -2.2473465    0.4904599   -1.1309173 
O    -1.2258276    0.5657288   -0.1294332 
C    -3.3731499    1.4124006   -0.6927045 
H    -1.8385419    0.8699171   -2.0752038 
H    -3.7610968    1.1161646    0.2830821 
H    -4.1958342    1.3855145   -1.4096020 
H    -3.0147810    2.4400044   -0.6168872 
H    -0.3802959    0.2322031   -0.4952150 
C     2.8895084   -0.0619741    4.1021264 
C     2.7957279   -0.2756100    2.6719344 
H     2.2801222   -0.8066629    4.6136205 
H     3.9283031   -0.1379629    4.4243974 
H     2.4999185    0.9307419    4.3316818 
N     2.7141922   -0.4392258    1.5379976 
C     0.0378375   -2.6799428    0.9956996 
C     0.0517483   -3.2218684   -0.3516756 
H    -0.5335911   -3.3238061    1.6632492 
H     1.0521108   -2.5843311    1.3793720 
H    -0.4159541   -1.6905210    0.9838929 
N     0.0585684   -3.6322995   -1.4262403 
C     1.0039349    2.8802034    0.5191979 
C     1.1142634    2.7550701    1.9609262 
H     0.0207005    2.5290036    0.2008478 
H     1.1471912    3.9190926    0.2210927 
H     1.7486178    2.2514399    0.0314781 
N     1.1840208    2.6466263    3.1040265 
C    -1.6737421    0.7167014    3.1277860 
C    -0.8311505   -0.3621099    3.6112438 
H    -1.6199489    0.7558542    2.0367835 
H    -2.7065086    0.5474239    3.4346958 
H    -1.3215170    1.6632156    3.5371669 
N    -0.1583534   -1.2207971    3.9760709 
