51
-833.68600100492
C    -0.8660163    2.4109446   -0.8777750 
C    -0.2551294    3.5136246   -0.0173033 
H    -0.9372205    2.7337352   -1.9175049 
H    -1.8705241    2.1424509   -0.5470137 
H    -0.2565563    1.5083182   -0.8550612 
H    -0.8764298    4.4139037   -0.0613582 
H     0.7193960    3.7929155   -0.4281145 
C    -0.0608371    3.1534713    1.4587795 
O     0.7981983    2.0136708    1.6172601 
C    -1.3529629    2.8404337    2.1923158 
H     0.4190961    4.0093001    1.9499322 
H    -1.8426140    1.9628050    1.7696657 
H    -2.0409091    3.6852336    2.1282905 
H    -1.1508949    2.6400691    3.2450269 
H     1.6027862    2.1329033    1.0803091 
C    -2.0730499   -0.9318410    3.2417678 
C    -0.5644838   -0.8265287    3.4518236 
H    -2.6112692   -0.4424865    4.0555139 
H    -2.4064233   -1.9704633    3.2050246 
H    -2.3678299   -0.4537852    2.3067751 
H    -0.2689431   -1.3842903    4.3464585 
H    -0.2899925    0.2156318    3.6348384 
C     0.2808742   -1.3279632    2.2772009 
O     0.0172762   -0.5580866    1.0961244 
C     0.0463212   -2.7877630    1.9282035 
H     1.3364332   -1.1992646    2.5492383 
H    -0.9749634   -2.9423966    1.5771242 
H     0.2109848   -3.4207916    2.8020781 
H     0.7290819   -3.1038299    1.1388227 
H     0.2497419    0.3804957    1.2736135 
C    -0.6263319   -0.2408720   -3.4350220 
C    -1.1427997   -1.2239867   -2.3874597 
H    -1.3771099    0.5197876   -3.6554215 
H    -0.3784567   -0.7404055   -4.3733829 
H     0.2686489    0.2701451   -3.0775616 
H    -2.0046839   -1.7722831   -2.7825008 
H    -1.5007378   -0.6734572   -1.5131857 
C    -0.1051149   -2.2422499   -1.8985577 
O     0.9908552   -1.5972377   -1.2526695 
C     0.4697345   -3.1106090   -3.0055858 
H    -0.6066599   -2.8969428   -1.1734540 
H     1.0366285   -2.5089666   -3.7182123 
H    -0.3255111   -3.6257583   -3.5481223 
H     1.1432254   -3.8579697   -2.5842983 
H     0.6663701   -1.1898471   -0.4199423 
C     3.4622804    0.1191303   -2.1533753 
C     3.1758401    1.0970362   -1.1215164 
H     2.7174395   -0.6792400   -2.0780864 
H     3.4032026    0.5875098   -3.1363842 
H     4.4631894   -0.2898562   -2.0122503 
N     2.9268508    1.8556561   -0.2950675 
