51
-833.68532790052
C     1.6569047    2.2723571    1.0058456 
C     0.6278822    2.0340183   -0.0952193 
H     2.6107117    1.8044027    0.7553633 
H     1.3193203    1.8467329    1.9545840 
H     1.8451216    3.3353890    1.1677545 
H     0.5281576    0.9617453   -0.2689774 
H     0.9753207    2.4682673   -1.0381888 
C    -0.7646842    2.5870641    0.2182805 
O    -1.7256260    2.1021697   -0.7164111 
C    -0.8311540    4.1037593    0.1833138 
H    -1.0448449    2.2498027    1.2271966 
H    -0.5497192    4.4707869   -0.8071405 
H    -0.1576580    4.5470255    0.9178968 
H    -1.8456892    4.4417213    0.3970333 
H    -1.7646430    1.1261987   -0.6326299 
C     3.8539328   -1.7614612    0.0781797 
C     2.4663878   -1.3337631   -0.3932889 
H     4.4262124   -0.9010436    0.4288992 
H     4.4198298   -2.2265580   -0.7331445 
H     3.8011151   -2.4772409    0.9002725 
H     2.5638585   -0.5430984   -1.1424432 
H     1.9019293   -0.9042741    0.4392487 
C     1.6425892   -2.4658166   -1.0082030 
O     0.4187046   -1.9622265   -1.5581242 
C     1.2649203   -3.5536678   -0.0188371 
H     2.2247639   -2.9166520   -1.8228986 
H     0.7057039   -3.1320575    0.8193020 
H     2.1512231   -4.0501945    0.3764552 
H     0.6400543   -4.3021554   -0.5066596 
H     0.6190869   -1.3486712   -2.2890068 
C    -1.3860508   -1.7126091    3.2312734 
C    -1.1584709   -0.9190251    1.9473182 
H    -0.6222843   -1.4789096    3.9750227 
H    -1.3445733   -2.7883295    3.0407814 
H    -2.3570746   -1.4925954    3.6779486 
H    -0.1446563   -1.1026892    1.5830253 
H    -1.2237208    0.1543649    2.1483349 
C    -2.1347370   -1.2645340    0.8197232 
O    -1.7229312   -0.6579123   -0.4076774 
C    -3.5534518   -0.7970833    1.0933244 
H    -2.1357438   -2.3543494    0.6835331 
H    -3.5757244    0.2900322    1.2006731 
H    -3.9491295   -1.2441012    2.0058202 
H    -4.2057640   -1.0708252    0.2637965 
H    -0.9435597   -1.1380666   -0.7594806 
C    -0.8702199    2.2508468   -3.7841651 
C    -0.0319381    1.0777643   -3.6299187 
H    -1.6256650    2.0710461   -4.5496644 
H    -1.3538450    2.4512885   -2.8224278 
H    -0.2625390    3.1078153   -4.0769530 
N     0.6223672    0.1453117   -3.4787405 
