57
-966.43364294639
C     3.2905458    1.0453346    2.3782128 
C     1.9639410    0.7284993    1.6920515 
H     3.1653235    1.8400509    3.1153461 
H     4.0370467    1.3813586    1.6538829 
H     3.6987714    0.1769389    2.8983168 
H     1.5459659    1.6446063    1.2665426 
H     1.2386126    0.3621434    2.4243000 
C     2.0804526   -0.2980350    0.5647913 
O     0.8442658   -0.4067733   -0.1493481 
C     2.4424808   -1.6924410    1.0444183 
H     2.8542288    0.0475311   -0.1348598 
H     1.6843987   -2.0657059    1.7365811 
H     3.4065239   -1.6955314    1.5531968 
H     2.5018478   -2.3807638    0.2002503 
H     0.6135033    0.4742335   -0.5321166 
C     2.7154499    2.7428804   -3.8917397 
C     2.1061025    2.3697502   -2.5432688 
H     3.7825517    2.9472880   -3.7907111 
H     2.2441307    3.6394744   -4.3022347 
H     2.6021338    1.9423633   -4.6245319 
H     2.3195448    3.1510386   -1.8095527 
H     2.5662202    1.4501368   -2.1665536 
C     0.5958639    2.1718406   -2.5801754 
O     0.1771246    1.9870162   -1.2171227 
C     0.1538846    0.9982458   -3.4443434 
H     0.1316774    3.0921411   -2.9566630 
H     0.6525442    0.0817167   -3.1205011 
H     0.3971018    1.1699574   -4.4939898 
H    -0.9225264    0.8430888   -3.3709125 
H    -0.7996238    1.9672220   -1.1819684 
C    -1.7133279    0.6527219    3.9295977 
C    -1.8281881    0.1199409    2.5037357 
H    -1.9360463    1.7203299    3.9651186 
H    -0.7016408    0.5136280    4.3204206 
H    -2.4028952    0.1497079    4.6100319 
H    -1.1857716    0.7073908    1.8438771 
H    -2.8493352    0.2513853    2.1332533 
C    -1.4380072   -1.3529638    2.3579585 
O    -1.3407601   -1.7198305    0.9826931 
C    -2.4288629   -2.3042727    3.0055955 
H    -0.4569399   -1.4938926    2.8361053 
H    -3.4180457   -2.1826602    2.5569982 
H    -2.5133142   -2.1197073    4.0769649 
H    -2.1117037   -3.3372211    2.8582258 
H    -0.5973781   -1.2197375    0.5866268 
C    -0.3889091   -2.9485740   -1.8385409 
C    -1.4985087   -2.3691523   -2.5746524 
H    -0.7465522   -3.3302888   -0.8816730 
H     0.0634771   -3.7554965   -2.4155942 
H     0.3535704   -2.1778383   -1.6266457 
N    -2.3807708   -1.9034409   -3.1469882 
C    -4.0436924   -0.6699874   -0.6402962 
C    -3.2429267    0.5152548   -0.8723877 
H    -3.4350486   -1.3798192   -0.0766574 
H    -4.9384492   -0.4122801   -0.0727903 
H    -4.3191723   -1.1142059   -1.5959456 
N    -2.5908894    1.4454029   -1.0423289 
