57
-966.43337873727
C     0.1610329    1.8705627   -2.7411265 
C     0.2960896    0.3683137   -2.9766750 
H    -0.8217013    2.2226035   -3.0590757 
H     0.9083041    2.4378430   -3.2991217 
H     0.2742809    2.1098763   -1.6836649 
H     0.1680407    0.1400125   -4.0399337 
H    -0.5113172   -0.1502120   -2.4517464 
C     1.6263613   -0.2396968   -2.5132113 
O     1.8540096   -0.0104616   -1.1255384 
C     2.8355320    0.2973238   -3.2609403 
H     1.5713420   -1.3230024   -2.6931315 
H     2.9511902    1.3705058   -3.1007738 
H     2.7375864    0.1192932   -4.3334365 
H     3.7418723   -0.1968724   -2.9089053 
H     1.0995169   -0.3672001   -0.6180421 
C     1.1478762   -3.5213498   -0.3952798 
C    -0.3008292   -3.1397566   -0.6960576 
H     1.5553516   -4.1282707   -1.2057511 
H     1.2312704   -4.1059729    0.5224742 
H     1.7782975   -2.6378074   -0.2935095 
H    -0.9106443   -4.0419154   -0.8001465 
H    -0.3479319   -2.6223447   -1.6581688 
C    -0.9648653   -2.2431194    0.3465584 
O    -0.2242556   -1.0216453    0.4149071 
C    -1.0766351   -2.8778383    1.7279655 
H    -1.9770966   -2.0145882   -0.0126111 
H    -0.0909422   -3.1140955    2.1301865 
H    -1.6620363   -3.7990787    1.6835291 
H    -1.5697446   -2.1942682    2.4206004 
H    -0.7058322   -0.3709948    0.9740499 
C    -2.9191956    1.1540930   -0.6465828 
C    -2.9627234    2.0867403    0.5615619 
H    -3.0587062    1.7191657   -1.5692926 
H    -3.7051604    0.3979233   -0.6042947 
H    -1.9599759    0.6418904   -0.7168849 
H    -3.9424276    2.5714664    0.6237333 
H    -2.2314701    2.8891802    0.4281863 
C    -2.6846678    1.4195407    1.9124392 
O    -1.3484973    0.8973495    1.9779375 
C    -3.6270157    0.2766821    2.2451760 
H    -2.7827607    2.1876731    2.6890961 
H    -3.5223843   -0.5405936    1.5302772 
H    -4.6635863    0.6175446    2.2248109 
H    -3.4108287   -0.1125907    3.2406419 
H    -0.7101324    1.6204151    1.8117829 
C     1.7734524   -0.3924494    3.0141584 
C     2.9830886    0.4054169    2.9172977 
H     0.9431945    0.2232363    3.3608645 
H     1.5063378   -0.7957399    2.0369518 
H     1.9237880   -1.2161141    3.7129307 
N     3.9376261    1.0410406    2.8302598 
C     3.0577679    2.6977259    0.1195223 
C     1.7691318    2.6816417    0.7801971 
H     3.8485001    2.7109031    0.8692548 
H     3.1329341    1.7854926   -0.4745857 
H     3.1349744    3.5719883   -0.5274272 
N     0.7446140    2.6445341    1.2985643 
