63
-1099.17889701040
C     1.9807927    3.5634375    2.3065688 
C     0.9364012    2.8262688    1.4730190 
H     2.7952358    3.9208999    1.6749074 
H     2.4125206    2.9064764    3.0656385 
H     1.5564903    4.4290050    2.8176733 
H     1.4223415    2.0312259    0.9013885 
H     0.4860690    3.5066981    0.7428944 
C    -0.1770800    2.1994450    2.3021533 
O    -0.9720134    1.4083057    1.4008997 
C    -1.0578193    3.2133244    3.0163229 
H     0.2709535    1.5317447    3.0469963 
H    -1.4970858    3.9079963    2.2967423 
H    -0.4850918    3.7835031    3.7491634 
H    -1.8664928    2.7068682    3.5457753 
H    -1.5912313    0.8579237    1.9164656 
C     0.1972612   -3.7825922   -2.9219583 
C     0.7432424   -2.3680720   -2.7381184 
H    -0.5076753   -3.8249991   -3.7545045 
H    -0.3248718   -4.1223980   -2.0234262 
H     0.9919472   -4.5009231   -3.1296879 
H    -0.0912444   -1.6675485   -2.6491357 
H     1.3134175   -2.0588650   -3.6197185 
C     1.6282464   -2.2026348   -1.5002734 
O     1.9715904   -0.8362365   -1.2891542 
C     2.9332994   -2.9741780   -1.5869111 
H     1.0610615   -2.5777654   -0.6360990 
H     3.5088905   -2.6414205   -2.4537281 
H     2.7570803   -4.0469390   -1.6723255 
H     3.5329632   -2.7968673   -0.6929627 
H     1.1541709   -0.3041186   -1.2612432 
C    -0.0636139    2.4936924   -4.4363649 
C    -0.1251272    1.3629933   -3.4131640 
H     0.3040551    2.1254596   -5.3953127 
H     0.6122125    3.2869857   -4.1065662 
H    -1.0434154    2.9416881   -4.6105002 
H     0.8511534    0.8782874   -3.3421575 
H    -0.8330299    0.5950445   -3.7412735 
C    -0.5226842    1.8199904   -2.0158544 
O    -0.3965696    0.6840120   -1.1466008 
C    -1.9329721    2.3866764   -1.9299300 
H     0.1906439    2.5882554   -1.6877511 
H    -2.6571403    1.6549658   -2.2966521 
H    -2.0299623    3.2970726   -2.5233835 
H    -2.1813226    2.6289686   -0.8954380 
H    -0.5914473    0.9696878   -0.2267139 
C     1.5794459   -1.0664029    1.8959389 
C     1.3578398   -0.9999535    3.3291741 
H     0.8467190   -0.4441981    1.3841655 
H     2.5761792   -0.7139793    1.6356321 
H     1.4598896   -2.0924027    1.5521061 
N     1.1579803   -0.9451864    4.4608635 
C    -1.7464472   -2.4951872    4.4799544 
C    -2.1090322   -1.3597577    3.6558903 
H    -0.9566287   -2.1970641    5.1694165 
H    -2.6157850   -2.8502225    5.0339221 
H    -1.3717362   -3.2887533    3.8317953 
N    -2.3845295   -0.4667470    2.9875217 
C    -2.3392812   -1.8612671   -0.2954515 
C    -1.5604399   -2.7160537    0.5816552 
H    -2.8221829   -2.4613628   -1.0672790 
H    -3.0998770   -1.3427388    0.2892311 
H    -1.6953842   -1.1165078   -0.7684129 
N    -0.9408795   -3.3835598    1.2841773 
