66
-1067.33921684209
C    -1.7568238    5.0287898   -1.5827683 
C    -0.9532793    3.8810001   -0.9780798 
H    -1.1030925    5.7161203   -2.1220427 
H    -2.2719604    5.6015557   -0.8072885 
H    -2.5092697    4.6720270   -2.2881494 
H    -0.1507720    4.2800827   -0.3525100 
H    -0.4743150    3.2981585   -1.7712929 
C    -1.7766796    2.9329328   -0.1140918 
O    -0.8538483    2.0298113    0.5026345 
C    -2.8342428    2.1638015   -0.8967574 
H    -2.2688723    3.5166574    0.6748179 
H    -2.3579321    1.5899073   -1.6957055 
H    -3.5673621    2.8387070   -1.3416397 
H    -3.3668236    1.4727229   -0.2423383 
H    -1.3191234    1.4713101    1.1685791 
C     3.9185499    2.2042297    0.3304073 
C     2.6566994    1.3490598    0.2447549 
H     4.2682819    2.2791552    1.3614862 
H     3.7296782    3.2194312   -0.0286708 
H     4.7338266    1.7876700   -0.2635389 
H     1.9026723    1.7453062    0.9297140 
H     2.8701627    0.3251581    0.5672797 
C     2.0334169    1.2982160   -1.1511723 
O     0.7877195    0.5974655   -1.1136530 
C     2.9076514    0.6128074   -2.1863270 
H     1.8434336    2.3300860   -1.4784327 
H     3.1484214   -0.4047334   -1.8727861 
H     3.8394267    1.1590693   -2.3346441 
H     2.3856183    0.5585431   -3.1422327 
H     0.1636169    1.0835404   -0.5279010 
C    -0.2042522   -5.3278444   -0.5773736 
C    -0.1265893   -4.2122742   -1.6161100 
H    -0.5939778   -6.2459184   -1.0205086 
H    -0.8654169   -5.0513082    0.2481377 
H     0.7750276   -5.5592781   -0.1550397 
H    -1.1065087   -4.0803675   -2.0830047 
H     0.5634218   -4.4843713   -2.4207361 
C     0.3020761   -2.8639615   -1.0477810 
O     0.1433016   -1.9042004   -2.0907952 
C     1.7316136   -2.8624951   -0.5201785 
H    -0.3736012   -2.6136400   -0.2180816 
H     2.4287359   -3.1188104   -1.3213865 
H     1.8556735   -3.5791592    0.2935359 
H     1.9912475   -1.8750082   -0.1381890 
H     0.4133912   -1.0240178   -1.7571180 
C     1.0873219   -1.6961283    3.2374901 
C    -0.0034658   -1.0305063    2.4029445 
H     1.6660455   -2.3916649    2.6285515 
H     0.6606178   -2.2605205    4.0708948 
H     1.7832256   -0.9646124    3.6513083 
H    -0.6009780   -1.8012329    1.9090358 
H     0.4450060   -0.4298473    1.6076293 
C    -0.9526355   -0.1459484    3.2106238 
O    -1.9785979    0.3972147    2.3603616 
C    -0.2725383    1.0359600    3.8777224 
H    -1.4376195   -0.7599737    3.9808384 
H     0.2503241    1.6446466    3.1368500 
H     0.4480408    0.7008473    4.6236993 
H    -1.0145964    1.6615271    4.3750405 
H    -2.4149001   -0.3251093    1.8725704 
C    -3.0272738   -1.6143916   -2.1604434 
C    -3.0735146   -1.5159046   -0.7146590 
H    -1.9790157   -1.6851319   -2.4694779 
H    -3.5698912   -2.5000541   -2.4924400 
H    -3.4855935   -0.7290304   -2.6023073 
N    -3.0888830   -1.4260733    0.4307451 
