72
-1200.08742212692
C     1.2976740    2.3221217   -3.7441632 
C     0.5017193    1.6971625   -2.6022670 
H     1.9303263    1.5725829   -4.2217919 
H     1.9487625    3.1203606   -3.3780652 
H     0.6483604    2.7486369   -4.5109201 
H     1.1854817    1.1905584   -1.9188923 
H    -0.1711188    0.9282984   -2.9925246 
C    -0.3300320    2.6921788   -1.7936145 
O    -0.8340737    2.0709153   -0.6007450 
C    -1.4778323    3.3048035   -2.5837500 
H     0.3259826    3.4917321   -1.4350482 
H    -2.1431690    2.5202374   -2.9542421 
H    -1.1119829    3.8743958   -3.4396853 
H    -2.0568585    3.9748462   -1.9475326 
H    -1.3089487    1.2459555   -0.8481689 
C     1.2870240   -3.8409077    2.7362232 
C     0.6386824   -2.6540521    2.0292869 
H     1.1931589   -3.7427143    3.8189048 
H     2.3517715   -3.8903132    2.5007619 
H     0.8270001   -4.7891276    2.4510737 
H     1.1022873   -1.7359839    2.3960021 
H    -0.4286127   -2.5974592    2.2697840 
C     0.7979950   -2.6822584    0.5106701 
O     0.3471527   -1.4510672   -0.0674272 
C     0.0145428   -3.7945509   -0.1618830 
H     1.8616261   -2.8018929    0.2773935 
H    -1.0539910   -3.6866972    0.0431456 
H     0.3363562   -4.7720374    0.1965806 
H     0.1658685   -3.7655767   -1.2412215 
H     0.7734543   -0.6775326    0.3666797 
C    -4.2640728   -1.0054917    1.7667127 
C    -3.0503564   -0.5061989    0.9875094 
H    -4.1296203   -0.8429170    2.8372319 
H    -4.4187380   -2.0766003    1.6119441 
H    -5.1790242   -0.4905658    1.4692247 
H    -2.1462696   -0.9726880    1.3868393 
H    -2.9281961    0.5726319    1.1223145 
C    -3.1068327   -0.8042840   -0.5106620 
O    -1.8718617   -0.4348111   -1.1385411 
C    -4.2112869   -0.0604302   -1.2387963 
H    -3.2542081   -1.8850827   -0.6462022 
H    -4.0941187    1.0172145   -1.1016800 
H    -5.1940237   -0.3509771   -0.8672410 
H    -4.1716468   -0.2775354   -2.3069918 
H    -1.1251574   -0.9088465   -0.6968773 
C     2.2754594    3.1926751    3.7235588 
C     1.9212273    2.7522282    2.3051084 
H     2.8102255    4.1439219    3.7132382 
H     2.9181449    2.4560479    4.2122975 
H     1.3865011    3.3232686    4.3428349 
H     2.8252501    2.7348292    1.6906675 
H     1.2403172    3.4761062    1.8436328 
C     1.2875465    1.3641974    2.2233475 
O     1.1815374    0.9647062    0.8498493 
C    -0.0674836    1.2724039    2.9119605 
H     1.9735932    0.6412842    2.6721197 
H    -0.7707400    1.9818431    2.4681615 
H     0.0156506    1.4911581    3.9773288 
H    -0.4792647    0.2690306    2.8041519 
H     0.4587057    1.4690688    0.4070481 
C    -0.1484283   -1.9379748   -3.6507181 
C     1.2523019   -1.6926955   -3.3548561 
H    -0.3444475   -3.0106466   -3.6605021 
H    -0.7816531   -1.4668348   -2.8972176 
H    -0.3956024   -1.5283883   -4.6310479 
N     2.3625773   -1.4949594   -3.1332111 
C     3.9695639    0.0362821   -0.5337248 
C     3.8850250   -0.6906029    0.7203362 
H     4.9984873    0.3461593   -0.7193395 
H     3.6272537   -0.5903611   -1.3589116 
H     3.3231459    0.9114704   -0.4718713 
N     3.8019122   -1.2602500    1.7164098 
