72
-1200.09169953624
C    -0.8789530   -3.1970262   -2.6836921 
C     0.4671646   -3.5516308   -2.0582135 
H    -0.9224695   -3.5251408   -3.7242795 
H    -1.0522864   -2.1220068   -2.6672342 
H    -1.6984044   -3.6679976   -2.1397061 
H     1.2888092   -3.1132953   -2.6351515 
H     0.6078635   -4.6357912   -2.0882644 
C     0.6155853   -3.0996500   -0.6124544 
O     0.6359658   -1.6645425   -0.5965537 
C     1.8791405   -3.6438544    0.0392254 
H    -0.2599365   -3.4429867   -0.0483042 
H     2.7632107   -3.3316386   -0.5208264 
H     1.8543453   -4.7349240    0.0730871 
H     1.9758553   -3.2768788    1.0630355 
H     0.7668966   -1.3460228    0.3231628 
C     2.1034295    2.2044701   -1.4451204 
C     1.8086399    1.1920403   -2.5463871 
H     3.1743280    2.2618723   -1.2447127 
H     1.6026796    1.9396022   -0.5151500 
H     1.7633195    3.2026121   -1.7316048 
H     2.1902235    0.2051336   -2.2662217 
H     2.3357677    1.4806718   -3.4608423 
C     0.3246143    1.0513357   -2.8818688 
O    -0.4254694    0.5274244   -1.7746938 
C     0.1012638    0.2011464   -4.1257330 
H    -0.0964398    2.0473433   -3.0511794 
H     0.5351423   -0.7927207   -3.9975001 
H     0.5681685    0.6651315   -4.9968405 
H    -0.9640006    0.0853636   -4.3288420 
H    -0.0486616   -0.3383630   -1.4930924 
C    -1.9878947    1.9306907    3.3957235 
C    -1.3917203    3.0078398    2.4940911 
H    -1.9641699    2.2401224    4.4423420 
H    -1.4351643    0.9954759    3.3148381 
H    -3.0266807    1.7318058    3.1239385 
H    -0.3471660    3.1981500    2.7643290 
H    -1.9290059    3.9482528    2.6447925 
C    -1.4525659    2.6712380    1.0116945 
O    -0.6480274    1.5006881    0.7907199 
C    -0.9693696    3.8186304    0.1368859 
H    -2.4878858    2.4278593    0.7509096 
H     0.0571438    4.0921046    0.3898915 
H    -1.6072750    4.6947420    0.2700104 
H    -0.9989536    3.5398852   -0.9183740 
H    -0.6273630    1.2814567   -0.1657541 
C     3.6417927   -0.1809349    0.7932848 
C     3.0330370    0.5513459    1.9846729 
H     4.4038121    0.4303565    0.3069906 
H     2.8875976   -0.4307988    0.0485292 
H     4.1156980   -1.1133314    1.1105042 
H     2.5938747    1.5010413    1.6622201 
H     3.8196136    0.8027747    2.7028258 
C     1.9594430   -0.2494715    2.7198540 
O     0.8272871   -0.5173371    1.8814392 
C     1.5138079    0.4303839    4.0070315 
H     2.3618031   -1.2387037    2.9594142 
H     1.1211782    1.4284603    3.7993275 
H     2.3515567    0.5343912    4.6992819 
H     0.7311790   -0.1502482    4.4963261 
H     0.3621947    0.3178693    1.6573590 
C    -3.6674158   -0.3612662   -2.0748736 
C    -4.0805254    0.3163293   -0.8587928 
H    -3.7775254   -1.4381656   -1.9468474 
H    -4.2749502   -0.0270337   -2.9165008 
H    -2.6171445   -0.1319408   -2.2648260 
N    -4.3816222    0.8520144    0.1137517 
C    -2.3692074   -1.3463004    1.8066716 
C    -2.8230373   -2.3020414    0.8137891 
H    -2.0867918   -0.4123434    1.3228103 
H    -3.1703256   -1.1399223    2.5159566 
H    -1.4971950   -1.7327726    2.3337102 
N    -3.1778288   -3.0509735    0.0160099 
