72
-1200.09115357938
C     1.5437356    1.2341478    2.8086296 
C     2.2435835   -0.0838391    2.4844459 
H     2.2411813    2.0675799    2.7117484 
H     1.1573069    1.2479058    3.8292517 
H     0.7099132    1.4209565    2.1323737 
H     3.0591855   -0.2556778    3.1944720 
H     2.7036474   -0.0202540    1.4947388 
C     1.3446239   -1.3244477    2.4996599 
O     0.3520810   -1.2724808    1.4642373 
C     0.6136515   -1.5423264    3.8126346 
H     1.9833541   -2.1959685    2.3076928 
H    -0.0820989   -0.7266635    4.0125323 
H     1.3216842   -1.5996297    4.6412580 
H     0.0460304   -2.4735070    3.7813542 
H     0.8016630   -1.1648300    0.5900342 
C     1.7901212    2.8776596   -0.5228317 
C     0.3231090    3.2474841   -0.7301341 
H     2.1989453    3.4145120    0.3344982 
H     2.3997277    3.1345971   -1.3908677 
H     1.9108077    1.8114196   -0.3328159 
H     0.2366526    4.3177954   -0.9445029 
H    -0.2326923    3.0714073    0.1945591 
C    -0.3918614    2.4892426   -1.8532239 
O    -0.4955950    1.0872914   -1.5639455 
C     0.2763470    2.6202910   -3.2104057 
H    -1.4100114    2.8923491   -1.9258807 
H     1.2716039    2.1746310   -3.2005745 
H     0.3738561    3.6707256   -3.4902158 
H    -0.3150937    2.1149782   -3.9753356 
H    -0.9547319    0.9686454   -0.6961359 
C     3.7943087   -0.1046554   -2.7249910 
C     2.5379575   -0.8883888   -3.0968001 
H     4.1599234    0.4666324   -3.5802800 
H     4.6012248   -0.7648971   -2.4027591 
H     3.5912119    0.5953167   -1.9137458 
H     2.7678005   -1.6235014   -3.8744788 
H     1.7990294   -0.2079114   -3.5316819 
C     1.8678171   -1.6257140   -1.9353436 
O     1.4607547   -0.6979972   -0.9160196 
C     2.7488988   -2.6614657   -1.2623367 
H     0.9795761   -2.1350205   -2.3199612 
H     3.6070431   -2.1916002   -0.7793016 
H     3.1111086   -3.3871362   -1.9920890 
H     2.1780432   -3.2025119   -0.5068615 
H     0.8366450   -0.0351752   -1.2864406 
C    -2.5689891    1.6619058    3.5295759 
C    -2.9771417    0.3832684    2.8020435 
H    -2.6048602    1.5187384    4.6111405 
H    -3.2326299    2.4935679    3.2870314 
H    -1.5534905    1.9552073    3.2617066 
H    -4.0155337    0.1298841    3.0377253 
H    -2.3711307   -0.4526548    3.1655169 
C    -2.8386421    0.4334594    1.2788358 
O    -1.4725434    0.6745787    0.9040423 
C    -3.6748958    1.5095530    0.6118145 
H    -3.1468812   -0.5347973    0.8743167 
H    -3.3432748    2.5050262    0.9110823 
H    -4.7268234    1.3958844    0.8779864 
H    -3.5930002    1.4270877   -0.4725339 
H    -0.8905896   -0.0375332    1.2506022 
C    -1.8683818   -3.5717476    0.6488805 
C    -1.2184521   -3.7842073   -0.6318596 
H    -1.9625386   -4.5177187    1.1831845 
H    -1.2668074   -2.8748963    1.2356021 
H    -2.8581144   -3.1464131    0.4806285 
N    -0.7007430   -3.9349555   -1.6479141 
C    -2.0363161   -1.2663611   -3.2894630 
C    -3.0058254   -1.4508130   -2.2246172 
H    -2.5478159   -1.0730876   -4.2329563 
H    -1.3952210   -0.4195430   -3.0371723 
H    -1.4302737   -2.1681936   -3.3801567 
N    -3.7611545   -1.5952084   -1.3692029 
