81
-1301.00146735377
C     1.3394897    1.6879918    2.3331116 
C     1.9744573    2.6282779    1.3147429 
H     2.1031870    1.1976468    2.9392477 
H     0.7547863    0.9094632    1.8457342 
H     0.6718035    2.2288423    3.0083116 
H     2.6071119    2.0596868    0.6256719 
H     2.6290664    3.3422151    1.8241478 
C     0.9603636    3.4243326    0.4942871 
O     0.0650474    2.5642131   -0.2211032 
C     1.6323865    4.3970827   -0.4649237 
H     0.3177277    3.9856181    1.1805315 
H     2.2963186    3.8625324   -1.1481903 
H     2.2279888    5.1324264    0.0802640 
H     0.8842299    4.9249706   -1.0572378 
H     0.5812334    1.9191659   -0.7609335 
C     0.0352588    1.7754918   -3.9646610 
C     1.5355338    1.7487757   -3.6888602 
H    -0.2233945    2.6136469   -4.6145503 
H    -0.5310113    1.8878574   -3.0398563 
H    -0.2882019    0.8555963   -4.4550960 
H     1.8393082    2.6743780   -3.1889616 
H     2.0843423    1.7126533   -4.6341089 
C     1.9957075    0.5681251   -2.8424005 
O     1.3186839    0.6308266   -1.5788406 
C     3.5040594    0.5762490   -2.6316122 
H     1.6991307   -0.3604470   -3.3406579 
H     3.8150900    1.5035332   -2.1447991 
H     4.0294138    0.4923787   -3.5854761 
H     3.8134795   -0.2587322   -2.0017396 
H     1.3197638   -0.2467388   -1.1331679 
C     2.0542113   -4.0661951   -1.7104252 
C     2.8635701   -3.1436365   -0.8048857 
H     2.6878902   -4.5118890   -2.4792941 
H     1.2530423   -3.5239715   -2.2097536 
H     1.6064427   -4.8809067   -1.1346793 
H     3.3075579   -2.3358606   -1.3948748 
H     3.6963578   -3.6916504   -0.3541990 
C     2.0465833   -2.5252633    0.3207989 
O     1.0154605   -1.7215480   -0.2660893 
C     2.8912025   -1.6946906    1.2778762 
H     1.5657024   -3.3379473    0.8797024 
H     3.3743070   -0.8733129    0.7443421 
H     3.6653522   -2.3071160    1.7454806 
H     2.2713400   -1.2661931    2.0666542 
H     0.3101280   -1.5530590    0.3966288 
C    -1.3370824   -4.1028980    1.6173846 
C    -0.9184401   -3.1623645    2.7438567 
H    -0.9224806   -5.1013474    1.7670426 
H    -0.9935728   -3.7396719    0.6487874 
H    -2.4249418   -4.1972863    1.5714477 
H     0.1726404   -3.0760065    2.7777735 
H    -1.2255851   -3.5761016    3.7085048 
C    -1.5064096   -1.7631881    2.6255578 
O    -1.0956431   -1.2189318    1.3678811 
C    -1.0881102   -0.8541086    3.7725103 
H    -2.6021966   -1.8480634    2.6190980 
H     0.0000742   -0.7815486    3.8245018 
H    -1.4558885   -1.2424762    4.7247914 
H    -1.4889878    0.1507379    3.6321713 
H    -1.4720263   -0.3156940    1.2493536 
C    -4.5056262   -0.2708390    0.5402907 
C    -4.3332808    1.0952646    1.1987616 
H    -5.3293013   -0.8237120    0.9956249 
H    -3.6056861   -0.8782161    0.6306247 
H    -4.7296043   -0.1630015   -0.5240532 
H    -4.1529199    0.9794080    2.2724384 
H    -5.2592111    1.6680466    1.0968921 
C    -3.1963983    1.9262306    0.6189133 
O    -1.9616621    1.2820715    0.9447848 
C    -3.1928271    3.3548436    1.1456764 
H    -3.3022460    1.9520180   -0.4750459 
H    -3.1019599    3.3563317    2.2341624 
H    -4.1148658    3.8721083    0.8716823 
H    -2.3537876    3.9134635    0.7275958 
H    -1.2094183    1.7877558    0.5478003 
C    -1.7426895   -1.0010268   -1.9236044 
C    -0.9784644   -1.6158875   -2.9938622 
H    -1.7621171   -1.6500765   -1.0494229 
H    -1.2766376   -0.0593529   -1.6365898 
H    -2.7639044   -0.8101798   -2.2530983 
N    -0.3702523   -2.0911208   -3.8463894 
