81
-1300.99741229548
C     2.6299370    0.3812736    4.1463631 
C     1.2476702    0.9891935    4.3816187 
H     2.9109052   -0.2556808    4.9871093 
H     3.3978329    1.1505478    4.0499142 
H     2.6513814   -0.2307631    3.2443732 
H     1.2665859    1.6129283    5.2801747 
H     0.5241357    0.1916928    4.5741601 
C     0.7021037    1.8368922    3.2343185 
O     0.5020795    0.9811932    2.1071366 
C     1.5885635    3.0181518    2.8589997 
H    -0.2762529    2.2223304    3.5499398 
H     2.5580011    2.6751825    2.4958642 
H     1.7506685    3.6703798    3.7202882 
H     1.1199025    3.6085185    2.0704106 
H     0.0064810    1.4557337    1.3974439 
C    -3.1193833    1.3228143    1.8413978 
C    -3.1724074    1.9177139    0.4362985 
H    -3.9195167    0.5936226    1.9792330 
H    -3.2388683    2.0878020    2.6108702 
H    -2.1729742    0.8120671    2.0174683 
H    -4.1091413    2.4677124    0.2988647 
H    -3.1776314    1.1099208   -0.2998797 
C    -2.0156734    2.8592983    0.0853749 
O    -0.7643618    2.1599985    0.0515741 
C    -1.8579428    4.0295665    1.0399762 
H    -2.2022418    3.2567850   -0.9184315 
H    -1.6045861    3.6884939    2.0448243 
H    -2.7847559    4.6030092    1.0992794 
H    -1.0637406    4.6919202    0.6942670 
H    -0.7885722    1.4867991   -0.6706910 
C    -1.8021397   -2.1055478    0.9529180 
C    -1.1031628   -2.1614009    2.3087043 
H    -2.8530168   -1.8405121    1.0791431 
H    -1.7674147   -3.0656225    0.4350720 
H    -1.3529312   -1.3579432    0.3001946 
H    -1.5921309   -2.8980185    2.9544547 
H    -1.2102795   -1.1951814    2.8084679 
C     0.3896559   -2.5032674    2.2613611 
O     1.1297975   -1.5551659    1.4837698 
C     0.6872634   -3.8805787    1.6946680 
H     0.7702980   -2.4654538    3.2906024 
H     0.3526321   -3.9605027    0.6594354 
H     0.1815798   -4.6517875    2.2780536 
H     1.7598760   -4.0761823    1.7215190 
H     0.9181606   -0.6407514    1.7816691 
C     2.5992379   -1.2009813   -3.8602036 
C     1.8883382   -2.4268820   -3.2919387 
H     2.4868580   -1.1647431   -4.9450001 
H     3.6686048   -1.2135556   -3.6430899 
H     2.1849133   -0.2771502   -3.4593369 
H     2.3120399   -3.3380710   -3.7245984 
H     0.8367295   -2.4063660   -3.5901114 
C     1.9420156   -2.5669625   -1.7726622 
O     1.3029311   -1.4244491   -1.1919119 
C     3.3510136   -2.7203457   -1.2137918 
H     1.3642991   -3.4612519   -1.5045850 
H     3.9575798   -1.8427131   -1.4399647 
H     3.8404793   -3.6001225   -1.6376961 
H     3.3171598   -2.8358203   -0.1295595 
H     1.2447297   -1.5416857   -0.2128953 
C    -3.3008099   -1.1858073   -2.6944011 
C    -2.0025730   -1.0508387   -3.4862931 
H    -3.7828405   -2.1425723   -2.9033130 
H    -4.0128550   -0.3981630   -2.9466671 
H    -3.1059264   -1.1350135   -1.6228560 
H    -2.2121409   -1.0602123   -4.5608109 
H    -1.3689861   -1.9208085   -3.2893455 
C    -1.1873258    0.2068697   -3.1697209 
O    -0.7821648    0.2015706   -1.7924572 
C    -1.9305863    1.5044244   -3.4298991 
H    -0.2864902    0.2006152   -3.7923262 
H    -2.7936815    1.6014773   -2.7697037 
H    -2.2851251    1.5372908   -4.4615698 
H    -1.2647234    2.3518810   -3.2721944 
H    -0.0680852   -0.4602440   -1.6612687 
C     2.3341141    1.7999891   -1.0563865 
C     1.8435377    2.2693518   -2.3405176 
H     2.2641823    0.7116843   -1.0149380 
H     3.3725849    2.1028096   -0.9183308 
H     1.7240605    2.2195720   -0.2579204 
N     1.4525189    2.6300422   -3.3603084 
