8
-7.336370677094
C          -4.46309549899756    1.76995335253309    0.00001102206065
C          -2.94167596621377    1.76994541880276    0.00000864731134
H          -4.84599840026352    2.76163607342068   -0.23057109187109
H          -4.84600317725340    1.47380554208767    0.97412371210759
H          -4.84600812410133    1.07442448315289   -0.74351766560624
H          -2.55876334111004    2.46547428315109    0.74353733968527
H          -2.55876828795787    2.06609323584054   -0.97410404073142
H          -2.55877306494783    0.77826269635471    0.23059075453182
