80
-73.389305958796
C          -1.62611694535809    1.99310465074829   -0.48838128974779
C          -0.85872695407909    0.73202640671021   -0.12253671093304
H          -0.96008845624442    2.73581735323827   -0.92158398189538
H          -2.09321590387372    2.42766727792279    0.39259750737293
H          -2.40573092264030    1.76910839288041   -1.21341203155500
H          -0.06880619115939    0.95670142108853    0.59015210220801
H          -0.40711220062440    0.29079875387145   -1.00865229264623
H          -1.52396003063487   -0.00169498282604    0.32693774170882
C          -0.04381495402296    2.56557248700228   -4.29677730962264
C           1.12185953944551    2.75602486030739   -3.33803261939829
H          -0.01603271726157    3.31176668833261   -5.08771725927470
H          -0.99185556424598    2.66124865286739   -3.77166178591552
H          -0.00429635288784    1.58073676527946   -4.75772123232055
H           1.08737921627740    3.74470550484210   -2.88506600161600
H           2.06910717574575    2.65469285642395   -3.86282166890801
H           1.09062601136704    2.01410822442137   -2.54395432075536
C          -4.45602345459943   -0.01400618886083    1.52850651709681
C          -4.42731715458650   -1.51918845189703    1.30788369110100
H          -5.44533931079975    0.30707946135762    1.84697772474910
H          -4.20648666216962    0.51308115678240    0.61063220814322
H          -3.74012511704967    0.27480852643340    2.29481991611262
H          -5.12985807103008   -1.80491843794434    0.52806366700061
H          -4.69835923413772   -2.04580759652639    2.22044634418341
H          -3.43378210558747   -1.84674953482532    1.00958687336115
C          -0.28414419423742    3.92443551508033    2.66869874102288
C           0.57690151720351    3.91945172497898    3.92249662463287
H           0.16720499914847    3.31153067322970    1.89267691812717
H          -0.39556686379827    4.93550759587778    2.28320629598662
H          -1.27516227595383    3.53110866328547    2.88491890227549
H           1.56825983852709    4.31158529510984    3.70715210936959
H           0.68485051375130    2.90826221340488    4.30814516702563
H           0.12744843666613    4.53495380651326    4.69860510969986
C          -1.04499618395218   -1.39113230332544    3.44918810316649
C          -0.59161160495719    0.02382118200160    3.77411281561058
H          -0.79475493136828   -1.64374808048552    2.42172853789062
H          -2.12074808153475   -1.48825107551870    3.57531391368823
H          -0.55790499175647   -2.10922715881737    4.10515842068454
H          -1.06708350917437    0.74114007414723    3.10935135035657
H           0.48662227092575    0.11290795412596    3.65883870982046
H          -0.84768126369425    0.28422579882241    4.79899627667596
C           1.77129870674184   -1.22511735090451   -2.92821046799657
C           3.17971590280872   -0.69246012306706   -3.14349798518316
H           1.54372174809840   -1.28828312478162   -1.86653505320372
H           1.66846477365349   -2.21963048266840   -3.35687173024936
H           1.03947757635521   -0.57341782598773   -3.39991308749182
H           3.91241818915646   -1.34485793229506   -2.67357533954838
H           3.28324371639718    0.30216581176540   -2.71579933757454
H           3.40691422722174   -0.63251640614494   -4.20555045775039
C          -1.16304563206618   -3.41532115846116   -0.45009361662139
C          -0.18840081385175   -4.28530403241796   -1.22890630691208
H          -1.13233583621974   -3.66052412434956    0.60969117959819
H          -2.17963245473455   -3.56583930901778   -0.80659035677921
H          -0.91128562268097   -2.36384928089655   -0.56735294637658
H          -0.43342133065875   -5.33821009964080   -1.10843604531101
H           0.82888693940303   -4.12832898546210   -0.87827855711545
H          -0.22534335894552   -4.04575341536589   -2.28943022494478
C           3.04414875618755    1.70976621693363    1.69716366233494
C           2.87997253512850    1.84824576198185    0.19131867682193
H           2.10028414262141    1.43372182439569    2.16200591080291
H           3.37696934178542    2.64807779178168    2.13501030240626
H           3.77819183687918    0.94277273327482    1.93390183289062
H           2.15101076157813    2.61999346413861   -0.04653540404566
H           2.54162341827704    0.91068310117203   -0.24347398836271
H           3.82513435432053    2.11974784890491   -0.27412902422837
C          -3.52264139269814   -1.02212789727544   -2.63741876977710
C          -2.24826265022501   -0.91295948373932   -3.46062947965597
H          -4.23542059443066   -0.25360222736822   -2.92950897553887
H          -3.30444884135947   -0.90371767515659   -1.57925596357590
H          -3.99087912184067   -1.99317345140177   -2.78290093307976
H          -1.78302953118274    0.05917026971252   -3.31565323368586
H          -2.46347313431683   -1.03324723641084   -4.52030297955949
H          -1.53721485131554   -1.68126224010303   -3.16619891730040
C           2.11914610082398   -2.06739010079674    1.34644095763189
C           3.39897300757863   -2.31803313331338    0.56338468694502
H           1.62151858774453   -3.00611970735108    1.57927787032944
H           1.43163428045962   -1.44952610574871    0.77297406674133
H           2.33634564461164   -1.55609873045960    2.28121275315426
H           3.18458502964581   -2.83899413246961   -0.36738626260939
H           4.08939264368825   -2.92710657350664    1.14297809788267
H           3.89137479076777   -1.37860681700589    0.32229909928070
