16
-14.674222093604
C          -0.53024891765521    0.61323221176969    0.79684489925491
C          -0.10323440766596   -0.75492534602774    0.28662009993773
H          -0.59974627559715    0.61247693179473    1.88242665308971
H          -1.50208999889314    0.88659673797756    0.39211230235479
H           0.18846157633215    1.37419594219969    0.50127827258842
H          -0.82186930693321   -1.51570834040408    0.58344569730708
H           0.86931723499447   -1.02815309628527    0.69038369209841
H          -0.03463174502617   -0.75514097659107   -0.79884804767719
C           0.91932882936643    1.66299237060471   -2.98248528753718
C          -0.56252446667925    1.97857417947184   -2.84448328183877
H           1.48117910911130    2.56195102027458   -3.22647216378898
H           1.08381515822575    0.93295592395165   -3.77212198696946
H           1.31285724927147    1.25602539847083   -2.05379763632020
H          -0.95522591229078    2.38664251375714   -3.77323737644786
H          -0.72675486148673    2.70757156527357   -2.05416479311745
H          -1.12499759774479    1.07989884077134   -2.60163291406107
