16
-14.674245667654
C           1.02588033602606    0.34921865032787    2.95780916415442
C           1.46359490767340   -0.70678285638209    1.95378022854134
H          -0.01967452547261    0.60942822808196    2.80992620003892
H           1.62130879137209    1.25293900557941    2.84723977022872
H           1.14657098030634   -0.01634275727027    3.97521524808248
H           1.34328495162427   -0.34211136327287    0.93625108100352
H           0.86880652067456   -1.61088763922574    2.06475489311800
H           2.50944920639737   -0.96640027052899    2.10244177049457
C          -1.66943791872626    0.43669145867529   -0.27174611830247
C          -1.26433527741974    1.87214005502641    0.02857685785035
H          -1.08770710808101    0.04016941753389   -1.10107995126037
H          -2.72284145849466    0.38370619874425   -0.53794216988454
H          -1.50367344072418   -0.19833544808813    0.59544326760217
H          -1.43029725058531    2.50650949997006   -0.83937605628773
H          -0.21124328828230    1.92604810758930    0.29491238756256
H          -1.84669127607215    2.26911120914616    0.85730020780763
