16
-14.674129555906
C          -0.23099803391796    0.52706140501782    0.04727419510683
C           0.24132975079205   -0.86615782382011    0.43475094886751
H           0.40698516296343    1.28601243449562    0.49480158230440
H          -1.25061123348767    0.69420371072510    0.38751692882202
H          -0.20609003536760    0.65313456302193   -1.03278962941763
H           0.21666379750439   -0.99267636661207    1.51492491721693
H           1.26084932430650   -1.03261556275344    0.09434080945125
H          -0.39712748854582   -1.62446823489087   -0.01285074796398
C           1.22651942962322   -3.02277248353991   -2.94065580825128
C           0.76339295936222   -1.62629622699746   -3.32751435461832
H           1.19613178306659   -3.15078511598217   -1.86096044084819
H           2.24673048038170   -3.19473789679494   -3.27667260070451
H           0.58647752831677   -3.77741773543489   -3.39250715288791
H           1.40376993044038   -0.87224945004341   -2.87547658100384
H          -0.25679173791200   -1.45513052234771   -2.99145615093882
H           0.79370422083596   -1.49777958201818   -4.40730872029591
