24
-22.012918897012
C           2.49873608458922    1.19431993649152    2.35217221743220
C           1.36787334538160    2.21197660220839    2.37735361609714
H           2.11940790820021    0.19120400588250    2.53677306441408
H           3.23782565464786    1.42322335890364    3.11682382464391
H           2.99587483373995    1.19680563681286    1.38479578427105
H           0.86519417995362    2.20236060790139    3.34218814698259
H           0.63394117295488    1.98998707984096    1.60659282699316
H           1.75253581385495    3.21454321859161    2.20334094583516
C          -1.49971938212578   -0.67096769597789    2.20801170749987
C          -2.20015136434233    0.40846888309644    1.39645719025092
H          -0.49000434851615   -0.36071216490895    2.46640645554850
H          -1.43968361117722   -1.59771783796500    1.64140517291442
H          -2.04121004295302   -0.86848601026426    3.13051515501955
H          -1.66933624765019    0.59150893618518    0.46516365325680
H          -2.24377902800373    1.34041640282061    1.95599583763468
H          -3.21691245886925    0.10671998704622    1.15484086625198
C           0.94093506916323    1.32638753335414   -1.52837230267893
C           1.00978348433158   -0.13551972708575   -1.11221320613664
H          -0.03147494266881    1.75092331958532   -1.28660474931869
H           1.09823165066228    1.42783192454408   -2.59996217471244
H           1.70314489902801    1.90786338291604   -1.01470389743978
H           0.24313390140650   -0.71553619777403   -1.62162652747336
H           0.86029429469401   -0.23745801786655   -0.04019309434672
H           1.98015151469641   -0.55856849241694   -1.36265795839925
