24
-22.012687558995
C          -2.54084210478936    0.82875815938366   -1.39769199341310
C          -1.20447194828018    0.21520780677346   -1.78755899370393
H          -2.39519349108697    1.65684191423604   -0.70746507527319
H          -3.17631683925465    0.08804831838562   -0.91702221746243
H          -3.05969455972284    1.20394886302359   -2.27686719445904
H          -0.68626250109913   -0.15728572398082   -0.90769210721707
H          -0.57017691124720    0.95434411547415   -2.27207512174158
H          -1.34921331306081   -0.61480785180217   -2.47562821063962
C          -0.27351788293917   -1.63527738685151    2.09801761672279
C          -1.72281057268692   -1.77180723411609    1.65521971984796
H           0.18487894369771   -2.61469235693244    2.21518626801221
H          -0.21119951479149   -1.11191608563503    3.04955065011416
H           0.30135605161150   -1.07641289376907    1.36277377380547
H          -2.29509631888453   -2.33580138306230    2.38841681048743
H          -1.78504554085573   -2.28969051198153    0.70064964869641
H          -2.18399728338189   -0.79302652747608    1.54323576194895
C          -0.16391836597078    2.29459773532183    1.51987044753278
C           0.95122789403643    2.22766969959142    2.55240214455946
H          -0.67701467217390    3.25250457964588    1.57276908592945
H          -0.89210547262013    1.50595639465064    1.69348736046156
H           0.23638925913617    2.17633343956399    0.51547705518518
H           0.55023107295363    2.34309298232615    3.55703498848226
H           1.67961975636683    3.01770546655932    2.38286923220265
H           1.46584242603346    1.27086294289875    2.49824835475213
