32
-29.351853657073
C          -1.66333081963796    0.45428237160521   -2.47327031857452
C          -1.08427521489108    1.45718670441674   -1.48677379311815
H          -1.02623047265666   -0.42429171954416   -2.54655210854511
H          -1.74898706430498    0.89656973346741   -3.46354113102150
H          -2.65293454241462    0.13281939894981   -2.15637500507178
H          -0.09076516350209    1.77116601365334   -1.79989420008256
H          -1.01018569041046    1.01933916293468   -0.49420873122040
H          -1.71672187534534    2.33992936223497   -1.42225022338468
C          -2.02430273577268   -2.02789594300164    0.74161274155628
C          -2.88966452780379   -0.90632860146103    1.29644091066349
H          -1.36923669066981   -2.42498911691148    1.51428379421632
H          -1.40843763142102   -1.66779756157347   -0.07907323503134
H          -2.64387464528699   -2.84068925970801    0.36930434107176
H          -2.27156589946959   -0.09933689827344    1.68361420157086
H          -3.51735964022141   -1.27179414111550    2.10612592394471
H          -3.53471672348236   -0.50066613653083    0.52031860510774
C           1.77139049903578   -1.40717722714956   -1.29692701332231
C           2.43731912314856   -0.46689784650053   -2.29007676039591
H           2.50272741678511   -1.80912827522460   -0.59926006247168
H           1.29974632247936   -2.24081297262547   -1.81332025606627
H           1.01071149003333   -0.88012542457500   -0.72686324266673
H           3.20451432987333   -0.98862157723645   -2.85803112943554
H           2.90412396998256    0.36767684454206   -1.77146729601099
H           1.70624815162745   -0.06881775637519   -2.99036435595143
C           1.93548717760004    1.34348895020447    1.42514627581401
C           0.87981462463393    0.64617045662056    2.26981775301318
H           2.33493747197930    2.20871322006430    1.94970228621578
H           1.50963504231217    1.68209978206936    0.48342822744337
H           2.75759547428965    0.66604426924711    1.20609979447743
H           0.05234629860664    1.32060235022924    2.48089205970114
H           1.30171740307583    0.31817830444015    3.21727906513633
H           0.48927172999434   -0.22706144632112    1.75204813331874
