40
-36.691189890549
C           1.40376534484668   -0.14746325745760    2.57952577795556
C           0.95346809178196    0.76099462610202    3.71349439806413
H           0.78458767958976    0.00650832861633    1.69967809284059
H           1.33020444667071   -1.19257845753831    2.87319647637813
H           2.43751146818046    0.05775542090353    2.31021712302805
H          -0.08142825139156    0.55668318017859    3.97993794670574
H           1.03139783658898    1.80576774871620    3.42086661668417
H           1.56964845590910    0.60728078794659    4.59672576903847
C           1.15720285123265   -1.78262280079201   -1.16917823360051
C           2.50298987775605   -1.07393683303257   -1.19885963874114
H           0.40791670941307   -1.20486982860713   -1.70526155806909
H           0.81933757061610   -1.91861710768422   -0.14442181249987
H           1.23060695084349   -2.76171061460718   -1.63739235638208
H           2.43358005281005   -0.09615462057676   -0.72722292484464
H           2.84077474239933   -0.93636492804469   -2.22379627384603
H           3.25267813442094   -1.65492588152498   -0.66649868559144
C           0.19082296079000    1.09779275976070   -3.86206833796864
C          -1.18162647291754    1.38538850655953   -3.27162617954910
H           0.96102483556225    1.17050973115795   -3.09762301145312
H           0.42481167307473    1.81045541475217   -4.64987902943333
H           0.22351368473971    0.09684794981733   -4.28711824620377
H          -1.20948261496264    2.38232962971297   -2.83799021455275
H          -1.42469196939733    0.66685438853039   -2.49173720383816
H          -1.94931001042014    1.32506007661208   -4.03997962768523
C          -2.49949146297800   -0.69576254392867    1.80666816880615
C          -2.29587829026441   -0.52913518102923    0.30851261817954
H          -3.39509200178473   -1.27879563118484    2.00959616723211
H          -2.60797897161753    0.27416367774614    2.28746504975567
H          -1.65018724837639   -1.20725299662730    2.25386414823444
H          -3.14576962134648   -0.01818472933431   -0.13899071915224
H          -2.18511372935483   -1.49812490499814   -0.17370203605697
H          -1.40228527580328    0.05717874751332    0.10934278900764
C          -0.62952159233538    3.03064815500643    0.65957530994569
C           0.64564613889396    2.64358382516636   -0.07407966135038
H          -1.48175892173594    3.00976676251740   -0.01624863340390
H          -0.54459234247237    4.03373082710611    1.07207451427697
H          -0.82531000024865    2.34099876917859    1.47726514855569
H           0.84998656507188    3.34061735828288   -0.88393155965181
H           0.55390413561872    1.64681925411641   -0.49966914189492
H           1.49582889951011    2.64951464765626    0.60466226601341
