40
-36.691144849225
C          -1.93261948736781   -1.99289410109979   -2.42089801610214
C          -1.14239226130540   -2.91113917341654   -1.50076610497360
H          -1.95391464926790   -0.98065861746618   -2.02486159042829
H          -2.95786423008938   -2.34248775752021   -2.52321871559572
H          -1.48222838431162   -1.96302958706593   -3.41051677415715
H          -1.59066518327486   -2.93889746676121   -0.50973550328289
H          -0.11564688246905   -2.56493808027050   -1.40385040010169
H          -1.12425154878545   -3.92520779455138   -1.89399643350959
C           0.14429343361624    1.71431578157984   -2.48412532533033
C           1.04352579257753    0.53481883241502   -2.14617621699370
H          -0.87902978711489    1.38262563076408   -2.64555718106401
H           0.48792431516498    2.21001374411551   -3.38937395968270
H           0.14375873689449    2.44154870005341   -1.67531533058921
H           1.03357624274559   -0.19691810562616   -2.95076687974380
H           0.70750456336507    0.04390778657354   -1.23569099792887
H           2.06890942533386    0.86499651870605   -1.99604959573305
C           0.90026429554893   -1.23312543554262    1.78380058922184
C           0.41500904594738   -0.72843358214649    3.13417152609900
H           1.43469927804395   -0.44797702937755    1.25393033462039
H           0.06046566529802   -1.55332942074556    1.17138860649004
H           1.57250717647414   -2.07931990540696    1.90852477917287
H          -0.25744898939353    0.11671752858978    3.00688107139446
H           1.25461869415353   -0.40849133881411    3.74741321957799
H          -0.11704784800069   -1.51306744437471    3.66807920479192
C           1.28777843065817    2.78290531782273    1.44365872960910
C           2.63852259561878    2.72874683454868    0.74600323029595
H           1.36953368071911    2.41637040122207    2.46436622825751
H           0.56021600496344    2.16960440140573    0.91745439766359
H           0.91417751116335    3.80422297027118    1.47573144349959
H           3.01318578647331    1.70780246972116    0.71458570422087
H           3.36674151670500    3.34234624907997    1.27184854779178
H           2.55757303686227    3.09463369734527   -0.27517690474913
C          -3.17663323936384   -0.31012664628065    1.11498846213960
C          -2.34688250389576    0.84593987934591    0.57733300246801
H          -3.40214017690589   -1.02019915166073    0.32253967962220
H          -4.11644489313662    0.05156649321670    1.52639834706909
H          -2.63834511381200   -0.83351183560637    1.90207729614461
H          -2.88027719223469    1.36592519470974   -0.21565668953878
H          -1.40383613670026    0.48376082750167    0.17488880077397
H          -2.12949910413878    1.56231835332137    1.36690630546829
