56
-51.370263343381
C           0.19668925236451   -3.23421379388764    1.63035858165971
C           1.59552071294004   -3.77605569758594    1.37809268564556
H           0.09641054031713   -2.23073526740717    1.22435474702675
H          -0.01152593180383   -3.19325453477515    2.69746922885979
H          -0.55103230246864   -3.86959868938591    1.16037845412115
H           2.34269652081004   -3.14130760931174    1.84942481166861
H           1.80358095220933   -3.81644278302667    0.31132396680401
H           1.69638668709586   -4.78039811075963    1.78378396426632
C          -2.43357982378131   -1.97691767339290   -1.17838476859414
C          -2.00064033244261   -0.52348970408551   -1.06335717901819
H          -1.56705799367871   -2.63044893064079   -1.24690093504619
H          -3.04286426865071   -2.12468103914822   -2.06723342739786
H          -3.01864301034902   -2.27146183568584   -0.30993862248434
H          -1.40865654863621   -0.22936570767933   -1.92692695793062
H          -1.40163557894989   -0.37301608954594   -0.16826168311742
H          -2.86702383428093    0.13125061195826   -1.00444101924347
C           2.20506460072687    0.31445496396150    2.29696973771794
C           2.17381745227282    0.14569354829593    0.78573582251725
H           1.71315602889405   -0.52301163304345    2.78644546894586
H           1.69578634104002    1.22952436508612    2.59156998350420
H           3.23135350749261    0.36494035265016    2.65396842483207
H           1.14727889947230    0.09406790167094    0.42765938410268
H           2.68335616441919   -0.76817342216553    0.49020086289092
H           2.66307149843362    0.98424953007039    0.29549822084556
C          -0.61371776805448    3.20424041588112    0.75177972268595
C          -2.10221543120025    3.10086064101682    0.45685735168503
H          -0.18920248051608    4.08543736844491    0.27563787433884
H          -0.08918310211241    2.32879341238649    0.37750760275312
H          -0.43999135780478    3.27752952891223    1.82326232874832
H          -2.27473593488782    3.01532287322778   -0.61380660356294
H          -2.62713257459658    3.98240629626691    0.81844043170709
H          -2.52781557541504    2.22625089898313    0.94262201576434
C           2.06951063235081    2.79454219946013   -2.37586188218354
C           0.91757890537820    1.85110168415469   -2.68705304704937
H           3.02494174259825    2.30660528906751   -2.55763484795327
H           2.03684166152153    3.10747795248367   -1.33455613655863
H           2.01696692370513    3.68345144391786   -3.00056833535343
H           0.97647608478612    0.96047480147202   -2.06623975885835
H           0.94603208898079    1.54333847286684   -3.73016113852087
H          -0.03643378287071    2.33839403266107   -2.49899474227276
C          -2.80311164393796   -0.75780342168804    2.75471295426844
C          -1.65279261973873    0.13712743263356    3.19061861611606
H          -2.42658775350581   -1.70062304430380    2.36453582754405
H          -3.39098976073609   -0.27601456918556    1.97641816739995
H          -3.46045886804951   -0.97289913067952    3.59439743205314
H          -0.99660841307367    0.35585096424089    2.35188190818100
H          -1.06366833105423   -0.34669152610115    3.96654042063225
H          -2.02718257084843    1.07950510775010    3.58459516497769
C           1.38386097188601   -2.20582546760135   -2.43586685011591
C           2.85589877784987   -1.84353306168847   -2.56197448353810
H           1.00681737529305   -1.93328967064027   -1.45315436148094
H           1.23839216330933   -3.27519209833474   -2.57500738400093
H           0.79503761979445   -1.68222893209475   -3.18568377806205
H           3.44631658087639   -2.36982936022200   -1.81471699337326
H           2.99990826859125   -0.77492199264706   -2.42062619122631
H           3.23401232915016   -2.11265474613775   -3.54574953668608
