56
-51.370364807758
C          -2.81189389909199   -1.55487833192384   -1.17512220945373
C          -2.70127912051965   -1.38542426836361   -2.68275217828659
H          -2.00174114185209   -1.03340045315657   -0.67144875659504
H          -2.76245478073313   -2.60710099290908   -0.90303305772171
H          -3.75547236684643   -1.15244496871956   -0.81239192887469
H          -1.75517691110133   -1.78231022586753   -3.04436606243193
H          -2.75797989038012   -0.33390128045011   -2.95416575881841
H          -3.50777058921556   -1.91251967376538   -3.18795392003013
C          -1.29666906704626    1.24260636065765    1.84894254471925
C          -2.80468669639050    1.38264692629199    1.70928121310758
H          -0.96421532863720    0.28852171845617    1.44624460343458
H          -1.00129266397325    1.29055775707348    2.89465546386103
H          -0.78718283196307    2.04039323274970    1.31297687022664
H          -3.31400542668794    0.58077289811792    2.23918797026188
H          -3.09736626077740    1.34269676965319    0.66260022970617
H          -3.14000807683004    2.33196519746757    2.12083857582175
C           1.18984814647940   -2.27811433663827   -1.40929502042529
C           1.12406056478889   -0.76018619040973   -1.33531262650553
H           0.19610678189417   -2.71030905884687   -1.31777249713266
H           1.80931844372417   -2.67613490848372   -0.60822391209070
H           1.61561155238967   -2.59616593413400   -2.35850160440502
H           0.70173769697389   -0.44081410851631   -0.38475243941768
H           0.50447827949931   -0.36443123427040   -2.13648196706969
H           2.11800624968841   -0.32817264713977   -1.42509961865057
C           1.80866694895298   -0.52235832324644    3.78677276723332
C           2.40681052157003   -0.16532228985777    2.43458534564950
H           2.37772835437556   -1.31984520990943    4.25960984741770
H           0.78073179197005   -0.85753368855852    3.67327210004199
H           1.81654002040331    0.34114229534035    4.44844434884666
H           2.40192063003218   -1.02936745015494    1.77378400990658
H           3.43519566771675    0.17114746384833    2.54800130905766
H           1.83600454927118    0.63139766151921    1.96367795056672
C           1.98997454400763    3.00438952777539   -0.16394940312341
C           3.37392879593233    2.52268017939312   -0.57195347188649
H           1.24558702445587    2.23947477772958   -0.37148474081102
H           1.71953810620032    3.90365512800813   -0.71319660094140
H           1.96325084380028    3.23301387102874    0.89945405008432
H           3.40226259783080    2.29726755270943   -1.63597070685956
H           3.64151936474086    1.62246432225084   -0.02316377300224
H           4.12209971971126    3.28468432416459   -0.36522722896071
C          -1.98328818610497   -2.55165941623869    2.63372543414429
C          -0.70353383130581   -3.05898683173515    1.98634538764980
H          -2.65983260711728   -2.15280995833217    1.88129443165343
H          -1.76488509609849   -1.76245864686619    3.35004765162989
H          -2.49179450912880   -3.35701154099970    3.15929190420351
H          -0.19434004153745   -2.25526922308516    1.46019321456852
H          -0.92300343162394   -3.84834001286022    1.27082471600470
H          -0.02495643017252   -3.45824752716394    2.73699230905358
C          -0.61714207086532    2.40277949598905   -3.24352150500200
C          -1.50177635929036    2.40656656662709   -2.00586605379065
H          -0.84881405864380    1.55023904563603   -3.87888155959828
H           0.43211516947317    2.34560436713766   -2.96312630371441
H          -0.76666000655879    3.31025818230864   -3.82439970489904
H          -1.35261067620659    1.49834569477237   -1.42708364344093
H          -2.55185043439661    2.46702916537658   -2.28454480286369
H          -1.26889454192920    3.25869908653694   -1.37120651208427
