56
-51.370039838848
C          -3.31742888749758    1.13049585936630   -0.83883218258789
C          -3.03033313312778    2.56315577246533   -1.26175711800338
H          -2.44700912338531    0.69418589649385   -0.35602509461706
H          -3.57469549873936    0.52008578237866   -1.70170895146179
H          -4.14907204291781    1.09805464820162   -0.13810605215469
H          -2.20476101276988    2.59530320174660   -1.96912046080383
H          -2.76476081817111    3.16951495734458   -0.39871210498623
H          -3.90339354104432    3.00601380032159   -1.73621755588313
C          -1.23849417828896    2.79959943239693    2.42038811755202
C          -0.73013820141356    2.66152097553273    3.84768602865242
H          -2.26562948093103    2.44992081273969    2.34399020193642
H          -0.62755480857501    2.21443414369593    1.73656188619460
H          -1.20532675620232    3.83959951886057    2.10240506773874
H          -0.77176072658404    1.62414773988987    4.17202684427864
H          -1.33546909486186    3.25515674983413    4.52907427968915
H           0.30066964408774    3.00105511818930    3.92288576368164
C           0.52559835249274    0.59696020902511   -2.33771528665677
C           0.66927949351481    0.97355126794582   -0.87090438137514
H          -0.52413433672894    0.51850017451474   -2.61093326638342
H           1.00325601479947   -0.35963010425972   -2.53749245674830
H           0.98956298901490    1.34899505553806   -2.97211482471963
H           0.20229295811809    0.22469510352388   -0.23460221536836
H           0.19431055544917    1.93241605789751   -0.67552090502203
H           1.71855756057033    1.04855166734442   -0.59329916609112
C          -2.99456955623602   -3.03692776746247   -1.04122871049426
C          -1.89534678738550   -2.55894193764776   -1.97790920560673
H          -3.69328554850724   -3.68221590451144   -1.56915005802385
H          -3.54719604045041   -2.19198155423280   -0.63647745441058
H          -2.57295336425275   -3.60000189329571   -0.21135038438879
H          -2.31763212904025   -2.00717518289170   -2.81487989531408
H          -1.33597243364121   -3.40368572253068   -2.37392130884551
H          -1.20145881087215   -1.90456011036919   -1.45589887372380
C          -1.84865163851180   -1.12450275347034    2.13898125690865
C          -1.71811238741851   -2.31837009013340    3.07237258628810
H          -1.51497580266519   -1.38550995680036    1.13726720377564
H          -1.24773104771751   -0.29160553819227    2.49456635982982
H          -2.88423132129906   -0.79784838797002    2.07649772989696
H          -0.68274363977046   -2.64570411105940    3.13537057728645
H          -2.31899316288461   -3.15199156385825    2.71496197981848
H          -2.05643868781770   -2.06041630384614    4.07365702501509
C           1.93791489428040   -2.94433220808487   -0.62390353840527
C           1.16439869828369   -3.67956020288890    0.46023599396023
H           1.43670706551952   -3.04328089332216   -1.58434147042915
H           2.94254682391053   -3.35040758396071   -0.71961300580768
H           2.01967007392789   -1.88593134563970   -0.38697520449411
H           1.08756727040265   -4.73880954434696    0.22496600233825
H           0.15778161993720   -3.27879279796680    0.55226715080428
H           1.66367721089449   -3.57929537261665    1.42165104571353
C           1.84144529997151   -0.65449988905762    4.10307823019431
C           1.94773981089163   -0.25888861456655    2.63814738756589
H           2.22211511705885   -1.66207582792986    4.25688194044972
H           0.80554600506336   -0.62825576663257    4.43345190812703
H           2.41605137659465    0.02600335768965    4.72757081293893
H           1.36539668483431   -0.93545433421259    2.01794810094790
H           2.98299022545275   -0.29549391405638    2.30570450322935
H           1.57595331807117    0.75188454622718    2.48651510815935
