64
-58.709596019835
C          -0.09209460410572   -1.50364376037907   -2.01887913661432
C           0.93688838531091   -2.24230218163597   -2.86076469926900
H          -0.83264475053123   -2.19558593933758   -1.62575823169754
H          -0.60664820017763   -0.75303633113190   -2.61489962569221
H           0.39081382931942   -1.00568743148203   -1.18126841229146
H           0.45787791495598   -2.74425072959103   -3.69857834176519
H           1.45401875732543   -2.99077072972222   -2.26448563461921
H           1.67746914594414   -1.55011970150599   -3.25551365018566
C          -1.49816672303691    2.26895313160791   -1.77702837950222
C          -2.47583267970065    3.01669187995447   -0.88358609955546
H          -0.88864465173113    2.96556286837068   -2.34827962066432
H          -2.03109275667437    1.62805568038206   -2.47590313534308
H          -0.83584234798781    1.64538322805851   -1.18065561749409
H          -3.14017904060597    3.63811493918640   -1.48006484571421
H          -1.94178844325878    3.65809571075305   -0.18609226773911
H          -3.08135300267986    2.31756280938931   -0.31156508931601
C          -0.41519068619084    0.79818145581827    3.51280480934601
C          -1.34399707863715    0.98348092917022    2.32296866252702
H           0.41296321144494    1.50154783601701    3.46561122574658
H          -0.00873896033057   -0.21036050549642    3.52503761148560
H          -0.95092007086057    0.96252670638757    4.44506627937909
H          -0.80521559588190    0.83085137551972    1.39053450480548
H          -1.76108238549793    1.98770575757782    2.31194913943379
H          -2.16469466135393    0.27116748685398    2.36264832576180
C           2.45175228949648    3.61407730178065    1.59850892656736
C           1.02699713675139    3.83965207876249    1.11613153081090
H           2.52081300343152    2.69068278548715    2.16971916053424
H           2.77596140281389    4.43454157521756    2.23504862359947
H           3.13438895952355    3.54646063888634    0.75453340178802
H           0.34285035592344    3.90621098607599    1.95918333546155
H           0.70548452673127    3.01977776113405    0.47879682689478
H           0.95783587526004    4.76389091697800    0.54624473138913
C           2.69687947837311   -0.45493665545570    1.40843857256997
C           3.00282883972251   -1.61465411900961    0.47292144585834
H           3.48016631141662    0.29814037214386    1.35277919794793
H           2.62802662697697   -0.79895627237631    2.43816331169496
H           1.75117843006973    0.01328407364545    1.14448889690028
H           3.94604375765601   -2.08464061188938    0.74292132639935
H           3.07554147067969   -1.26797359389078   -0.55539738911922
H           2.21853530369431   -2.36575554041098    0.52723559614863
C           2.49900423592227    1.60824244685208   -2.11882539739448
C           2.60781613817133    3.08084707109856   -2.48405866794375
H           3.30608836814316    1.03992275091426   -2.57672988458338
H           1.55269161634451    1.19865395169566   -2.46439460814398
H           2.55809935191900    1.47687837488239   -1.04105512358117
H           2.53886062139808    3.21488735621233   -3.56147204257104
H           3.55921221396534    3.48991263702534   -2.15056717831113
H           1.80863307408693    3.65073948471654   -2.01595882179665
C          -4.16866146234211   -0.90932311702686   -1.72865063260959
C          -3.57737610039378   -0.93230678860377   -0.32744924267084
H          -5.12278261111415   -1.43133290097084   -1.75230892624630
H          -3.49712045893752   -1.39236882007584   -2.43502829434338
H          -4.33221516699757    0.11475449931911   -2.05692765003989
H          -3.42002729002097   -1.95526040268196    0.00683863216614
H          -4.24578011743153   -0.44297130223351    0.37786658729124
H          -2.62144209936422   -0.41536385663246   -0.30979843800209
C          -0.63066748285965   -2.86899742998866    1.80763241446154
C          -0.73347341519634   -4.09820223257464    0.91739804652346
H          -1.47190876522647   -2.82237492789845    2.49572372961944
H          -0.62990368823639   -1.96207767940087    1.20848386901398
H           0.28671346692990   -2.89620184628474    2.39171445694257
H          -1.65483706706295   -4.07763982954467    0.33909976613310
H          -0.72761612710524   -5.00727844971997    1.51485958533696
H           0.10287983761967   -4.14099542199564    0.22299600504730
