64
-58.709945821243
C           2.92617140576840   -1.36090574870389   -1.74238071604617
C           2.50505281307640   -0.01629363205851   -1.16976434317561
H           3.63694468657946   -1.22494029285029   -2.55457177822707
H           2.06381572015051   -1.89935019895043   -2.12821538489839
H           3.39655678357023   -1.97231210068651   -0.97539529481908
H           2.02839159917136    0.59478732785111   -1.93262663318480
H           3.36864700894121    0.52474251875452   -0.78877861035542
H           1.80207698745066   -0.15583897785360   -0.35115174949661
C           0.18843690492340    3.13163876370391   -2.55944216146465
C          -0.81814128321185    2.55847613859916   -1.57391247668466
H           0.50110831657658    2.37083635809370   -3.27138231977231
H           1.06965423397707    3.49663666235898   -2.03646261282837
H          -0.24770190053240    3.95891208724064   -3.11494288372157
H          -0.37250207954325    1.74536627992211   -1.00589023184873
H          -1.69109961601107    2.17525085178902   -2.09682819059583
H          -1.14709020689461    3.32345172159468   -0.87388384612214
C          -0.23335655730089   -3.20413099817091   -0.23669696191856
C          -0.94675786902562   -3.56335612607351    1.05788638994589
H          -0.80312332398161   -3.54966401385372   -1.09633911240456
H           0.75141119530071   -3.66498386237574   -0.27159313404274
H          -0.11117707491468   -2.12671602696522   -0.32058207942182
H          -1.07580467574025   -4.64048812534795    1.13706134365841
H          -1.92951096700649   -3.09812092798426    1.09514497719348
H          -0.37323352075995   -3.22481501005563    1.91796867496680
C          -1.61894226975034    1.49262486595978    2.23498179378313
C          -0.54892748404694    0.42335098514066    2.07603102321329
H          -2.37284238756817    1.17530506254809    2.95207231115332
H          -2.11107665431086    1.68601998068794    1.28456899750544
H          -1.18114737820978    2.42342525494713    2.58901884612258
H          -0.98550883914776   -0.50502391010791    1.71557253929164
H          -0.06127093995216    0.22279420249711    3.02753397323036
H           0.20965911616318    0.74719275198622    1.36674822493845
C           2.59844528238824   -1.89358514175926    2.49092706066578
C           3.46887957044540   -0.64619259236410    2.50209573018147
H           1.91355508718657   -1.89006492394911    3.33623927226115
H           3.21139773708560   -2.79028265210784    2.55320668840008
H           2.01241536354671   -1.94259213389109    1.57668533952653
H           4.05214717203167   -0.59318382555505    3.41888814718570
H           2.85524495903187    0.24878690269225    2.43556316874533
H           4.15675200465674   -0.65271053173116    1.65970768457972
C          -3.20586304895327   -0.72041732962390   -0.81028621809736
C          -4.03600500083936    0.00730462304941   -1.85647195297017
H          -3.02107847167550   -1.74785452372240   -1.11502465295171
H          -3.72233883484437   -0.73370428292205    0.14713870872420
H          -2.24728912503789   -0.22603935503452   -0.67408675144409
H          -4.99480525398546   -0.48686774765423   -1.99797392797665
H          -3.51660026418864    0.02456020892484   -2.81200143284937
H          -4.22423228836622    1.03410624884034   -1.54971201974107
C           2.21475948859609    3.33899742025186    2.62441775919386
C           1.98226351978480    3.42598493261035    1.12343287527710
H           1.99273861300894    4.29092256590566    3.10195730876113
H           3.25046141044756    3.08338250386784    2.83812326695099
H           1.57595018156679    2.57852430683474    3.06782694976310
H           2.61188515338909    4.19614992229107    0.68298263752300
H           0.94411901089639    3.66960081739470    0.91044884535038
H           2.21678073180827    2.47902542105158    0.64231029657365
C          -0.99602242131697   -2.07038294533107   -4.11918765177472
C          -0.45181011895909   -0.68974418201290   -3.78619398870166
H          -1.01851871576321   -2.22545025542185   -5.19572477793184
H          -2.00762580692432   -2.18569961797463   -3.73639219608486
H          -0.37214181872398   -2.84398518041715   -3.67649376665107
H          -1.06865794456373    0.08470347474037   -4.23718312138699
H           0.56336500906715   -0.57879642546524   -4.16115380154006
H          -0.43980981755842   -0.53444124011963   -2.71046554069235
