72
-66.050008411141
C          -3.47250390534278   -0.71165764889448    3.11056700840162
C          -2.86933350797701   -2.08527819948999    2.85793073133017
H          -4.37617989694649   -0.79491525349502    3.71042418052282
H          -3.72954488499039   -0.22994937601709    2.17036376665710
H          -2.76832268066305   -0.07447764568328    3.64137439244085
H          -3.57098397887044   -2.71944709761214    2.32060251434971
H          -2.61903781601140   -2.57384101229587    3.79748395188641
H          -1.96279339021852   -2.00297204817055    2.26291650916508
C           2.28548438298188    3.22724353150378    1.93649851784499
C           3.19485007830484    2.47514029753799    0.97643686685334
H           2.80620210504510    4.07743632505272    2.37170516694913
H           1.96008598643229    2.57598828916718    2.74454458777983
H           1.40302176657777    3.59628112509458    1.41878642395257
H           4.08058853371553    2.11039986234769    1.49244005025516
H           3.51726224266276    3.12438101683934    0.16505395973101
H           2.67553980350334    1.62239035848667    0.54562009568239
C          -1.52968014888397    2.33840686970314    1.14361249185541
C          -0.92725720052023    1.03699274845485    0.63795457723005
H          -1.11292225901763    2.60365312852555    2.11290058585619
H          -2.60816536083089    2.24623522397423    1.25277383472442
H          -1.32589754015405    3.15142309980245    0.44997992955371
H          -1.14237330100923    0.22591032199806    1.32899289403625
H           0.15173768558743    1.13001198191050    0.53994096606642
H          -1.34168606437860    0.77880312124193   -0.33412652562535
C           1.70889290643611   -0.85686802993591    2.92470588616514
C           0.70912289204307   -0.31669900409236    3.93600521618792
H           2.50920179797094   -0.13963309758462    2.75712551768592
H           1.22161206032808   -1.05463797266568    1.97313622400499
H           2.15062038919983   -1.78503464676187    3.28093782653908
H           0.26203735979524    0.60697931467081    3.57542909741792
H           1.19689572700792   -0.11230111622576    4.88683742501553
H          -0.08720678149689   -1.03692797599212    4.10932776279126
C           0.88830661855756    2.61140962150139   -2.36133843491204
C          -0.47574768473367    2.95461669556799   -2.94054414139607
H           0.98049135951886    1.53896618374527   -2.20943696466093
H           1.03430620802876    3.10694945088585   -1.40445585831930
H           1.68176473069735    2.92875408727424   -3.03469647939568
H          -1.26917663554164    2.64446555865168   -2.26419256799174
H          -0.62458900262052    2.45250577171012   -3.89388634877731
H          -0.56563645214375    4.02679672305106   -3.10188449036065
C           2.75619642253767   -1.08096234374607   -1.04377520721216
C           3.62953037231551   -0.31204804430620   -2.02377982422133
H           3.17561286863124   -1.03883009544143   -0.04087364454559
H           2.67958023188310   -2.12568446386199   -1.33711629756977
H           1.75227233889098   -0.66276897788966   -1.01334072438436
H           4.63119575029762   -0.73483555761345   -2.05497754546233
H           3.70851623871189    0.73208024818433   -1.72967850739265
H           3.20952930337206   -0.35451502245333   -3.02623161625823
C          -4.16056588320053   -1.09734895568766   -0.86657177504319
C          -4.36052181507176    0.34828286248000   -1.29571870900956
H          -4.88746173519225   -1.37536531762365   -0.10649016173150
H          -3.16388227414906   -1.24110371955306   -0.45680393440157
H          -4.28067590153895   -1.76704360612648   -1.71521649996984
H          -4.23424231308031    1.02111825959414   -0.45035491648210
H          -5.35974913329841    0.49400506214862   -1.70012415276425
H          -3.63935295935765    0.62246759676247   -2.06234171639022
C           0.35000424736427   -3.87132479799029    0.72825880188592
C          -0.49019591000014   -3.10365729135362   -0.28113022171388
H           1.38953791099085   -3.55486091412026    0.68030126805405
H           0.30702191105226   -4.93942808647979    0.52722682630045
H          -0.01274780400199   -3.70086473323427    1.73949172982642
H          -0.13144319901641   -3.28174308338605   -1.29206460752083
H          -0.44057424838190   -2.03419335776846   -0.08785524099399
H          -1.53143695877868   -3.41441874142552   -0.22832183136005
C          -1.15903294103528   -0.86269229561925   -3.41881110168637
C           0.15527043274091   -1.13555735921906   -4.13373136372290
H          -1.65315674499229   -1.79375895514196   -3.15148984101821
H          -1.82968481265179   -0.28950006409316   -4.05532566770257
H          -0.98542658432324   -0.29657258311348   -2.50691930350766
H          -0.01476002316181   -1.70107928989946   -5.04737395502330
H           0.82491340709287   -1.70842828627119   -3.49643647052027
H           0.64828542634159   -0.20212221568119   -4.39681212099612
