72
-66.050046802565
C          -1.90034143440564    2.18604250666688    0.48269392346411
C          -1.01711753634127    0.98464460049306    0.18502485280784
H          -1.51843128755837    2.74024056272128    1.33731911959131
H          -2.91725350085323    1.87108581220961    0.70790595159534
H          -1.93703822072486    2.85579516596612   -0.37376400454206
H          -0.99206983492877    0.31013404740159    1.03808197279934
H          -0.00074879677575    1.30484098514079   -0.03139749083169
H          -1.39726539970210    0.43801329968179   -0.67460550938286
C           2.20514179137916    3.45005009857407   -1.55463695752534
C           1.67352201018215    4.07447695678836   -0.27323438623752
H           3.29302309406590    3.45247566063678   -1.55977210305729
H           1.85879760948816    4.00502434550378   -2.42391433504665
H           1.86585069182062    2.42128924145824   -1.64849058897575
H           2.00869288669082    5.10525547443237   -0.18074013911117
H           2.02547842760963    3.52311306624592    0.59635355107842
H           0.58589169256822    4.06698869949540   -0.26460947686258
C          -4.30251109011965   -0.44491494616627   -1.78709892815140
C          -3.40598073595532   -1.44080143600624   -2.50753911410708
H          -3.90726202018068   -0.21893603674785   -0.79986085718421
H          -5.30557483438874   -0.84888426666574   -1.66859169454137
H          -4.37464071329877    0.48450679748742   -2.34846250025142
H          -3.32795515684680   -2.36534024011982   -1.93997897458119
H          -2.40542670952794   -1.03444512525358   -2.63648304891647
H          -3.80658230119750   -1.67546887640941   -3.49146221788025
C           0.11238176125843    1.15927552836151    4.13521772047165
C           1.23091264449082    1.60887512930067    3.20752210003712
H          -0.82314944053572    1.06321376822840    3.58861116011647
H          -0.03465722538791    1.88023120709418    4.93653230095580
H           0.34886586937249    0.19618151843313    4.58184174598423
H           0.98887506742608    2.56886861342840    2.75665195606290
H           1.38277671983623    0.88478988689961    2.41098516970008
H           2.16491920340765    1.71516004836822    3.75550140631916
C           2.83741275723455   -0.52064163280495   -0.56935480612798
C           3.78744266457353    0.27210512902277    0.31548792652377
H           3.20403581072845   -1.53453500784869   -0.71496782299289
H           2.74278866944062   -0.05161387794351   -1.54648750320618
H           1.84934257214285   -0.57700497214753   -0.11830908275841
H           4.77517127814678    0.32724201426818   -0.13681104138230
H           3.88457323752432   -0.19786427531740    1.29164302235767
H           3.42124587983932    1.28580604576695    0.45908645372059
C           0.49114197768651   -2.48804971676725    2.71893753672488
C           2.00332941419574   -2.48209299641256    2.88155119342297
H           0.16638080665106   -1.62647580592020    2.14064266230628
H           0.00064344507643   -2.45413972192625    3.68933002550247
H           0.16224407503454   -3.38676512629526    2.20249755769573
H           2.32934384017663   -1.58017999441702    3.39509614317314
H           2.49213729794066   -2.51860880530087    1.91070838648027
H           2.33044499736194   -3.34237234904638    3.46154834081704
C           0.07248857482725    0.71447164390012   -3.69256046026248
C          -0.92841512079099    1.85123160165050   -3.54916200377555
H           1.03645264334537    1.09373205473546   -4.02543708242240
H          -0.27567119433861   -0.01500541311677   -4.42082266866228
H           0.21540059244494    0.20574544203890   -2.74170228661892
H          -1.06474915085845    2.36269414897067   -4.49952254220192
H          -0.58038088842715    2.57597591346163   -2.81723721340238
H          -1.89505442341792    1.47356725498933   -3.22389605760800
C          -3.36047823519006   -1.22940440018645    2.60185735961244
C          -3.21309095566533   -2.31463593449989    1.54621809758038
H          -3.59787863712633   -0.27362803440084    2.13977788175663
H          -2.43769731164829   -1.11757473987456    3.16665821130698
H          -4.15819283660217   -1.47732893121940    3.29854868555066
H          -2.41883253681464   -2.06432908576428    0.84726814636058
H          -4.13834635839836   -2.43223803236952    0.98660296885674
H          -2.96950877884976   -3.26759109766972    2.01048253238919
C          -0.04801493942655   -3.02589256530118   -1.11802141741581
C           0.35715030426237   -3.12366016994316   -2.58069726891354
H          -0.86656463581870   -3.70841335589468   -0.89999478419480
H          -0.37196902729249   -2.01577282661376   -0.87813504583889
H           0.78901443056966   -3.27740214030641   -0.47135100669565
H          -0.48174015503905   -2.87665499019824   -3.22742010349642
H           0.68654544915043   -4.13234923802534   -2.81970548892323
H           1.17200286705700   -2.43680635650394   -2.79822872685876
