21
-366.19250691018
C    -0.1407749    0.3708781   -2.3450622 
C    -1.3830619    0.7130348   -1.5127505 
H    -0.2176612    0.7981254   -3.3646993 
H    -0.0013282   -0.7234966   -2.4548812 
H     0.7935447    0.7703267   -1.8966270 
H    -2.2775964    0.2240226   -1.9568566 
H    -1.5733596    1.8067566   -1.5518316 
C    -1.2947826    0.3224459   -0.0242655 
O    -0.3300483    1.1285137    0.6635833 
C    -1.0380689   -1.1728072    0.2021524 
H    -2.2649794    0.5869002    0.4503215 
H    -0.0463176   -1.4737398   -0.1929496 
H    -1.8080937   -1.7948761   -0.2994010 
H    -1.0602307   -1.4081762    1.2849735 
H     0.5149027    1.0339547    0.1780223 
C     1.8717611   -0.2401206    2.6076495 
C     2.3560522   -0.1351889    1.2369660 
H     1.7774654   -1.3021211    2.9075945 
H     2.5589182    0.2731576    3.3084256 
H     0.8732316    0.2420907    2.6398425 
N     2.6904275   -0.0196805    0.1197936 
