27
-498.87635653576
C     1.6049458   -2.5808215   -0.3504767 
C     0.8853993   -1.2290047   -0.3341157 
H     1.8937529   -2.8949439    0.6727873 
H     2.5335877   -2.5371028   -0.9584525 
H     0.9696539   -3.3854408   -0.7736165 
H     1.5119533   -0.4797553    0.1954885 
H    -0.0589219   -1.3049000    0.2489499 
C     0.5531979   -0.6566395   -1.7255991 
O     0.0497867    0.6769531   -1.6281870 
C    -0.4137200   -1.5360446   -2.5257058 
H     1.5054962   -0.5665126   -2.2974295 
H    -1.3633492   -1.6753466   -1.9666141 
H     0.0112151   -2.5385473   -2.7350481 
H    -0.6524719   -1.0515130   -3.4926800 
H    -0.7979511    0.6362159   -1.1170139 
C    -2.6424988    0.9683626    2.7675699 
C    -2.3623206    0.7851280    1.3523860 
H    -2.8513420   -0.0072038    3.2487637 
H    -1.7438933    1.4305122    3.2325244 
H    -3.5165029    1.6343897    2.9065446 
N    -2.0990871    0.6502091    0.2207906 
C     1.3683774    2.6903410    0.4056134 
C     0.7725119    2.4634292    1.7134862 
H     0.9567423    1.9545186   -0.3304475 
H     1.1388572    3.7155840    0.0534197 
H     2.4688143    2.5723501    0.4600801 
N     0.2777670    2.2657827    2.7569820 
