27
-498.87727680331
C     1.2333825    1.1105880   -0.6487350 
C     1.8012956   -0.2651873   -1.0081227 
H     1.2822533    1.8005586   -1.5149666 
H     1.7887250    1.5886935    0.1839619 
H     0.1711655    1.0341478   -0.3451146 
H     2.8529163   -0.1701556   -1.3583942 
H     1.2318628   -0.6803118   -1.8678949 
C     1.7698404   -1.3073710    0.1302726 
O     0.4543623   -1.5070230    0.6462630 
C     2.6676841   -0.9494414    1.3130244 
H     2.1465529   -2.2691860   -0.3014881 
H     2.3641058    0.0141845    1.7705476 
H     3.7267033   -0.8657472    0.9972406 
H     2.5945133   -1.7318954    2.0937342 
H    -0.1727272   -1.6108329   -0.1126493 
C    -3.2360231    0.4968352   -2.2082258 
C    -2.2740918   -0.4994556   -1.7647849 
H    -4.2138200    0.0229169   -2.4229288 
H    -3.3531103    1.2414175   -1.3899448 
H    -2.8711604    1.0042261   -3.1227216 
N    -1.4946146   -1.2802577   -1.3762420 
C    -1.1145860    0.5791908    2.3703307 
C    -2.0054240    1.2549848    1.4399029 
H    -0.4343511    1.3121772    2.8475532 
H    -1.7000157    0.0699540    3.1612945 
H    -0.5039150   -0.1787857    1.8178595 
N    -2.7115239    1.7857756    0.6702280 
