27
-498.87801921138
C    -0.4765567   -0.0832582    1.8433822 
C    -0.3455492    1.3803852    1.4186390 
H     0.1090345   -0.2937258    2.7608676 
H    -0.1092757   -0.7613960    1.0490196 
H    -1.5338172   -0.3516142    2.0518976 
H     0.7208301    1.6151855    1.2027008 
H    -0.6430908    2.0505208    2.2547570 
C    -1.1843823    1.7547460    0.1832533 
O    -0.9251558    0.8986065   -0.9300516 
C    -0.9990499    3.2237208   -0.2116593 
H    -2.2583194    1.5852649    0.4294468 
H     0.0654812    3.4291897   -0.4519651 
H    -1.3020102    3.9080522    0.6076870 
H    -1.6041447    3.4588415   -1.1090738 
H     0.0547751    0.8622004   -1.0718570 
C     3.3181028   -1.8198924   -0.5499819 
C     2.5035206   -0.6544994   -0.8548907 
H     2.6364791   -2.6937507   -0.4530236 
H     4.0471355   -2.0064433   -1.3626928 
H     3.8666400   -1.6686156    0.4003308 
N     1.8171971    0.2614551   -1.0965373 
C    -1.7120343   -2.1145334   -1.1212163 
C    -0.4804481   -2.8293833   -0.8235790 
H    -2.4867988   -2.3610627   -0.3684954 
H    -1.5150330   -1.0129754   -1.0937609 
H    -2.0877232   -2.3969055   -2.1246394 
N     0.5241929   -3.3801126   -0.5785575 
