36
-599.74086376484
C     1.1689995    2.8069012    0.1325179 
C     0.8468977    2.4314244    1.5839356 
H     2.0743692    3.4447975    0.0810658 
H     0.3416158    3.3765531   -0.3385273 
H     1.3490627    1.9094081   -0.4930132 
H     0.5866911    3.3462328    2.1619326 
H     1.7510247    2.0062737    2.0708460 
C    -0.2876974    1.4010135    1.7673409 
O     0.1077010    0.0959616    1.3448423 
C    -1.6075738    1.8216473    1.1118190 
H    -0.4636735    1.3016369    2.8620813 
H    -1.4982276    1.8993409    0.0112023 
H    -1.9486529    2.8084369    1.4876484 
H    -2.3973861    1.0742098    1.3233337 
H     0.2537198    0.0855138    0.3573163 
C    -1.6973409   -2.0590558   -0.6434720 
C    -0.7561991   -2.1401191   -1.8504934 
H    -1.9826250   -3.0729103   -0.2974115 
H    -2.6365024   -1.5214402   -0.8876464 
H    -1.2229812   -1.5278066    0.2060241 
H    -1.2835253   -2.5908298   -2.7205134 
H     0.0889918   -2.8254291   -1.6231390 
C    -0.1507505   -0.7985556   -2.3077368 
O     0.7322995   -0.2487452   -1.3138121 
C    -1.1840808    0.2737130   -2.6353233 
H     0.4474438   -0.9993019   -3.2287355 
H    -1.7843890    0.5322616   -1.7407118 
H    -1.8762947   -0.0776163   -3.4260583 
H    -0.6833371    1.1958550   -2.9894102 
H     1.4484182   -0.9101960   -1.1392832 
C     1.9522623   -2.1742715    2.3461179 
C     2.2687858   -2.2248327    0.9288749 
H     1.2134753   -1.3474666    2.4566660 
H     1.5080647   -3.1310622    2.6830960 
H     2.8589780   -1.9604764    2.9448483 
N     2.4624365   -2.2010658   -0.2262217 
