36
-599.74258488876
C    -1.2179754    2.7635484   -0.7313159 
C     0.2609578    2.3770175   -0.6872226 
H    -1.4633689    3.5401910    0.0206305 
H    -1.8515556    1.8753891   -0.5376495 
H    -1.5026875    3.1575092   -1.7296551 
H     0.5482294    2.0795568    0.3457677 
H     0.8984484    3.2520831   -0.9417872 
C     0.6136774    1.2149554   -1.6338121 
O    -0.1981534    0.0692719   -1.3715140 
C     2.1031957    0.8590625   -1.5735007 
H     0.3565044    1.5263036   -2.6730505 
H     2.3724001    0.5175661   -0.5524819 
H     2.7419034    1.7305166   -1.8253340 
H     2.3425430    0.0405762   -2.2819390 
H     0.0783206   -0.2795470   -0.4754854 
C     0.2191092    0.9565559    3.1780227 
C    -0.9051981    0.2076654    2.4600181 
H    -0.1084077    1.9644528    3.5026760 
H     1.0962318    1.0753592    2.5123382 
H     0.5598072    0.4051661    4.0793549 
H    -1.2751265    0.8049304    1.5978853 
H    -1.7746983    0.0714945    3.1380846 
C    -0.4914154   -1.1706982    1.9372568 
O     0.6104513   -0.9704987    1.0332274 
C    -1.6409024   -1.9072806    1.2457001 
H    -0.1318443   -1.7813773    2.8015598 
H    -2.0002018   -1.3215358    0.3744565 
H    -2.4911037   -2.0593616    1.9414115 
H    -1.3131091   -2.9021272    0.8834622 
H     0.9255228   -1.8533110    0.7154937 
C     0.2692461   -2.5904498   -2.9129475 
C     0.7885561   -2.9968566   -1.6178358 
H    -0.1157697   -1.5536420   -2.7675446 
H     1.0714156   -2.5921268   -3.6764124 
H    -0.5466862   -3.2647195   -3.2387404 
N     1.1716837   -3.2456396   -0.5391175 
