42
-732.41962791912
C     0.5539466   -2.7448281    0.4323407 
C     1.2851561   -3.0297810   -0.8821911 
H     0.9487184   -3.3773547    1.2514943 
H    -0.5339107   -2.9434526    0.3522454 
H     0.6807907   -1.6903420    0.7446937 
H     1.1422741   -4.0923429   -1.1780926 
H     2.3790951   -2.9026986   -0.7298221 
C     0.8720706   -2.1498668   -2.0768244 
O     1.1651521   -0.7613833   -1.8412499 
C    -0.6096148   -2.2275154   -2.4337073 
H     1.4662915   -2.4875372   -2.9597112 
H    -1.2334843   -1.8377917   -1.6045034 
H    -0.9124830   -3.2722852   -2.6442482 
H    -0.8197494   -1.6144935   -3.3320680 
H     2.0695300   -0.6774790   -1.4424448 
C    -1.3616064    3.0591146    1.1680590 
C    -1.9629693    2.4620560   -0.1083095 
H    -2.1225612    3.6294218    1.7377284 
H    -0.5265095    3.7550204    0.9480933 
H    -0.9687341    2.2676018    1.8368489 
H    -2.4018054    3.2671220   -0.7364239 
H    -2.8073987    1.7911903    0.1614307 
C    -0.9818651    1.6603764   -0.9784578 
O    -0.4388103    0.6073239   -0.1788946 
C     0.1370199    2.5058312   -1.5971186 
H    -1.5750082    1.2193483   -1.8180831 
H     0.7614408    2.9849775   -0.8157160 
H    -0.2753064    3.3032854   -2.2490014 
H     0.7957896    1.8625277   -2.2134426 
H     0.1526694    0.0571655   -0.7757937 
C    -1.8869068   -0.7266395    2.2670471 
C    -0.7234202   -0.6500941    3.1386457 
H    -2.2359610   -1.7740991    2.1787012 
H    -2.7127969   -0.1077662    2.6702597 
H    -1.5909480   -0.3412850    1.2627389 
N     0.2372789   -0.5682294    3.8043389 
C     2.1368859    1.1895398    1.8053471 
C     2.8046588    0.4234585    0.7692694 
H     1.1186275    1.4149444    1.4217154 
H     2.0210919    0.5886413    2.7301567 
H     2.6837942    2.1271383    2.0229934 
N     3.2695674   -0.1988197   -0.1080437 
