48
-865.09874732019
C     1.5539283    2.9472138   -3.2066765 
C     0.9028792    2.0966696   -2.1140604 
H     0.8834995    3.7724932   -3.5185940 
H     1.7785569    2.3428407   -4.1105654 
H     2.5050627    3.4061828   -2.8678015 
H    -0.0846328    1.7225816   -2.4577144 
H     0.6998936    2.7162113   -1.2126256 
C     1.7317213    0.8817054   -1.6853303 
O     0.9049630    0.0994953   -0.8039745 
C     3.0462898    1.2355443   -0.9901242 
H     1.9560643    0.2755121   -2.5973070 
H     2.8543716    1.8662953   -0.0976521 
H     3.7265520    1.7881395   -1.6687481 
H     3.5731938    0.3195417   -0.6566116 
H     1.3764370   -0.7568604   -0.6017052 
C    -2.8031475    2.1156136    1.5085199 
C    -2.1697308    1.6540180    0.1932266 
H    -2.4819021    3.1434369    1.7719888 
H    -2.5161014    1.4503515    2.3505273 
H    -3.9110091    2.1212669    1.4589092 
H    -1.0671801    1.7744508    0.2510756 
H    -2.5044954    2.2965463   -0.6506793 
C    -2.4558421    0.1871338   -0.1747193 
O    -1.7311193   -0.1974164   -1.3425501 
C    -3.9308347   -0.0893239   -0.4522200 
H    -2.1413861   -0.4433241    0.6985177 
H    -4.2765335    0.5249496   -1.3090865 
H    -4.5629893    0.1401706    0.4276472 
H    -4.0824031   -1.1552234   -0.7142970 
H    -0.7589269   -0.0558866   -1.1627874 
C     0.5171829    0.2016167    2.4261833 
C     1.8036795   -0.1880035    2.9834827 
H     0.6262524    0.3809936    1.3342101 
H    -0.2070203   -0.6266075    2.5692665 
H     0.1359640    1.1183529    2.9164491 
N     2.8392690   -0.5346577    3.4086404 
C    -1.2240264   -3.1998609   -0.6127868 
C    -0.9618144   -3.0748893    0.8122819 
H    -2.0650990   -3.8978976   -0.7927507 
H    -1.4770284   -2.1953814   -1.0367794 
H    -0.3182275   -3.5811117   -1.1242910 
N    -0.7335460   -2.9530434    1.9558383 
C     2.5957715   -3.5273626    2.2332986 
C     2.3741158   -2.8058561    0.9932935 
H     1.6056297   -3.7367391    2.6878393 
H     3.1368746   -4.4754546    2.0479558 
H     3.1712038   -2.8769083    2.9233031 
N     2.1656398   -2.2075194    0.0099835 
