51
-833.29127954804
C     2.7364296   -1.1558621   -2.1494589 
C     1.5970623   -0.3583849   -2.7864656 
H     3.0953501   -1.9617320   -2.8203121 
H     2.4044572   -1.6208530   -1.2010734 
H     3.6016045   -0.5013159   -1.9135123 
H     0.7653676   -1.0394466   -3.0753142 
H     1.9416579    0.1246516   -3.7267621 
C     1.0218814    0.7256792   -1.8626968 
O     0.5253201    0.1414260   -0.6530895 
C    -0.0531223    1.5766122   -2.5433948 
H     1.8556252    1.3922153   -1.5420844 
H    -0.9041747    0.9474937   -2.8753143 
H     0.3521080    2.1045172   -3.4307556 
H    -0.4418824    2.3365751   -1.8364833 
H    -0.1857068   -0.5419616   -0.8826890 
C     0.9678855    0.0239320    3.3445984 
C     1.5627053    1.1287314    2.4699587 
H     1.7365079   -0.7207771    3.6339961 
H     0.1607340   -0.5137923    2.8108249 
H     0.5302035    0.4375585    4.2774921 
H     2.0089764    0.6844185    1.5528477 
H     2.3924468    1.6365907    3.0088738 
C     0.5448153    2.1963003    2.0304247 
O    -0.5280957    1.6191153    1.2864804 
C     1.2116460    3.3275072    1.2382418 
H     0.0752871    2.6307152    2.9434598 
H     1.7066263    2.9251779    0.3292165 
H     1.9832339    3.8498928    1.8406318 
H     0.4586529    4.0743559    0.9163651 
H    -0.1196366    1.1018841    0.5230632 
C     0.4547116   -3.8851533   -0.5586230 
C    -0.1629654   -2.9843535    0.5130157 
H     1.4611797   -4.2397334   -0.2590431 
H     0.5542787   -3.3421576   -1.5182793 
H    -0.1769804   -4.7785931   -0.7465773 
H     0.5097974   -2.1257206    0.7280415 
H    -0.2753870   -3.5414436    1.4674878 
C    -1.5368089   -2.4268423    0.1276067 
O    -1.3626685   -1.6727958   -1.0911074 
C    -2.1609330   -1.5705961    1.2310848 
H    -2.2146595   -3.2873212   -0.0941870 
H    -1.5592770   -0.6571010    1.4198933 
H    -2.2303412   -2.1459731    2.1765668 
H    -3.1857566   -1.2518749    0.9553884 
H    -2.1969783   -1.1715968   -1.2907673 
C    -3.1163612    2.5137950   -0.0837332 
C    -3.2707082    1.2758132   -0.8255121 
H    -2.1769027    2.4227471    0.5216327 
H    -3.0370458    3.3734069   -0.7777089 
H    -3.9811342    2.6708073    0.5904578 
N    -3.3390254    0.2534624   -1.3927056 
