57
-965.96731767479
C     0.2394528    1.8576360   -2.5286237 
C     0.3796945    0.3648704   -2.8367012 
H    -0.6997327    2.2647628   -2.9525522 
H     1.0760214    2.4518683   -2.9502775 
H     0.2140060    2.0344541   -1.4356094 
H     0.3209404    0.1862736   -3.9328412 
H    -0.4834628   -0.1770560   -2.3935820 
C     1.6751051   -0.2899721   -2.3128783 
O     1.8446200   -0.0830665   -0.9107207 
C     2.9391708    0.2131489   -3.0063989 
H     1.5915345   -1.3872325   -2.5177467 
H     3.0691339    1.3053666   -2.8640519 
H     2.9029665    0.0091865   -4.0950081 
H     3.8312725   -0.2912242   -2.5855866 
H     1.0057203   -0.3641705   -0.4419399 
C     1.0188672   -3.4067615   -0.3174721 
C    -0.4537071   -3.0459141   -0.5376837 
H     1.3794168   -4.0927604   -1.1097518 
H     1.1829989   -3.9128805    0.6554554 
H     1.6537674   -2.4999506   -0.3426803 
H    -1.0771100   -3.9659260   -0.5557140 
H    -0.5735599   -2.5758965   -1.5378355 
C    -1.0586803   -2.0916479    0.5018050 
O    -0.3300549   -0.8582666    0.4753252 
C    -1.0986086   -2.6560627    1.9250351 
H    -2.1106334   -1.8878905    0.1826421 
H    -0.0813201   -2.9118068    2.2834351 
H    -1.7257497   -3.5696049    1.9763051 
H    -1.5216342   -1.9027994    2.6183869 
H    -0.8253923   -0.1897674    1.0532348 
C    -2.8899273    1.0840638   -0.7490217 
C    -2.9852900    2.0561087    0.4303551 
H    -2.9090892    1.6284297   -1.7136971 
H    -3.7322441    0.3627273   -0.7625552 
H    -1.9466724    0.5043959   -0.7099959 
H    -3.9523792    2.6051174    0.3972720 
H    -2.1935288    2.8307752    0.3413048 
C    -2.8540619    1.4153098    1.8266224 
O    -1.5404340    0.8730590    2.0489955 
C    -3.8603696    0.3012732    2.0977558 
H    -3.0193305    2.2227127    2.5785624 
H    -3.6993618   -0.5577947    1.4155433 
H    -4.8976094    0.6642616    1.9543125 
H    -3.7575406   -0.0659300    3.1374703 
H    -0.8779670    1.6198982    1.9953142 
C     2.6495028   -0.8427082    2.0524828 
C     3.2886374    0.3487959    2.5908126 
H     1.5468262   -0.7729902    2.1398633 
H     2.8712285   -0.9196940    0.9679914 
H     3.0027830   -1.7520769    2.5764268 
N     3.8057434    1.3255083    2.9803029 
C     2.7124184    2.7895007    0.2378348 
C     1.4559568    2.7472240    0.9621465 
H     3.5510453    2.8359660    0.9599143 
H     2.7713447    1.8427672   -0.3444467 
H     2.7390909    3.6594321   -0.4465388 
N     0.4361852    2.6669578    1.5290025 
