63
-1098.64842192007
C     1.3217198    1.0310890   -2.8650143 
C     2.6039036    1.3224454   -2.0836025 
H     0.9518099    1.9336057   -3.3906580 
H     0.5176251    0.6718030   -2.1942883 
H     1.4912987    0.2439172   -3.6289976 
H     2.4509755    2.1806979   -1.3919385 
H     3.4126749    1.6313314   -2.7810421 
C     3.1093969    0.1297299   -1.2569672 
O     2.1768686   -0.2222250   -0.2165688 
C     4.4934998    0.3746331   -0.6544475 
H     3.1504710   -0.7661338   -1.9164506 
H     4.4732646    1.2508487    0.0262272 
H     5.2432174    0.5735882   -1.4464741 
H     4.8310488   -0.5063373   -0.0735601 
H     2.1706615    0.5150765    0.4616804 
C    -0.5905811    3.1743847   -0.7667487 
C    -1.8477485    2.4805567   -1.2902119 
H     0.0032724    3.6167797   -1.5909838 
H     0.0624928    2.4606379   -0.2299214 
H    -0.8450548    3.9935160   -0.0612186 
H    -1.5614856    1.6499673   -1.9732822 
H    -2.4504407    3.1858928   -1.9027615 
C    -2.7542023    1.9098712   -0.1864604 
O    -2.0445335    1.0462270    0.7033645 
C    -3.9937561    1.2253111   -0.7714841 
H    -3.0929234    2.7587977    0.4527829 
H    -3.7005847    0.3898455   -1.4401352 
H    -4.6013337    1.9386691   -1.3655719 
H    -4.6294812    0.8130301    0.0361806 
H    -1.5246605    0.3718267    0.1817100 
C    -3.0882127   -2.2588131   -0.0809252 
C    -2.1174060   -2.3732555   -1.2590013 
H    -4.1394487   -2.3764966   -0.4125170 
H    -3.0023303   -1.2727603    0.4142289 
H    -2.8848065   -3.0428984    0.6771511 
H    -2.3609545   -1.6166534   -2.0387946 
H    -2.2312568   -3.3664313   -1.7436661 
C    -0.6436088   -2.2035079   -0.8824726 
O    -0.4455578   -0.8487016   -0.4238490 
C     0.2952845   -2.5181321   -2.0460028 
H    -0.4060575   -2.8987661   -0.0422365 
H     0.0790560   -1.8699360   -2.9196531 
H     0.1848386   -3.5761457   -2.3577986 
H     1.3518230   -2.3652504   -1.7487350 
H     0.5383387   -0.6597368   -0.3684648 
C    -0.3220039    2.4033529    2.9661868 
C     0.9083873    2.0009041    2.3129343 
H    -0.4096099    3.5071938    2.9816215 
H    -1.1542491    1.9663462    2.3631424 
H    -0.3432210    2.0041405    3.9984020 
N     1.8640631    1.6503100    1.7358277 
C     2.8780449   -2.0295114    2.4322438 
C     1.8020203   -2.9691421    2.1527393 
H     3.8337778   -2.5636120    2.5987427 
H     2.9730391   -1.3479398    1.5615369 
H     2.6232229   -1.4290589    3.3286630 
N     0.9172257   -3.6965849    1.9049640 
C    -1.2609443   -1.4477479    2.7783543 
C    -0.2762317   -0.9405868    3.7194358 
H    -1.3365182   -2.5483755    2.8637283 
H    -2.2478006   -0.9794411    2.9567005 
H    -0.9395152   -1.2028035    1.7445511 
N     0.5331963   -0.5093419    4.4498061 
