63
-1098.63201093149
C     1.0238840   -4.7065473   -2.2903600 
C     1.7487834   -3.5148963   -1.6698475 
O     1.0569855   -2.3352813   -2.0912946 
C     1.8494135   -3.5778608   -0.1321681 
H     2.7950371   -3.4990128   -2.0673248 
H     2.4545320   -4.4697276    0.1440463 
C     0.5020702   -3.5933937    0.5925209 
H     2.4389828   -2.6964641    0.2030123 
H     1.5515567   -1.5526037   -1.7334718 
O    -0.9385453    1.3198419    3.3298911 
H    -0.8538194    2.2148577    2.9233202 
C     0.2205170    1.1059044    4.1285276 
H     0.0230112    0.1522669    4.6706386 
C     0.3996036    2.2289509    5.1554729 
C     1.4821764    0.9000940    3.2690287 
H     1.6951520    1.8550513    2.7348649 
C     1.3603303   -0.2544482    2.2738559 
H     2.3512564    0.7344634    3.9433981 
C     1.4364521   -0.7258351   -4.7031867 
H     1.1205342   -1.1278130   -5.6857537 
H     1.3114504   -1.5061816   -3.9106423 
C     0.6230049    0.4201002   -4.3398912 
H     2.5035766   -0.4335352   -4.7534150 
N    -0.0442383    1.3263726   -4.0181914 
H    -1.5270007   -1.3081486    0.7278642 
H    -3.2981512   -1.0782521    0.6115298 
C    -2.3521219   -0.5930988    0.9269896 
O    -1.4960131    1.9508380   -1.7542843 
H    -2.3828609   -0.4237876    2.0200894 
H    -1.1015120    1.8625281   -2.6624861 
H    -0.8650866   -0.0119952   -1.3863981 
C    -1.7809531    0.6202471   -1.2783881 
C    -2.1068078    0.7355840    0.2118450 
H    -1.2676436    1.2558562    0.7161272 
H    -2.9917970    1.4009173    0.3281421 
C    -2.8984850   -0.0111374   -2.1089878 
H    -3.8367744    0.5720502   -2.0026042 
H    -3.0935709   -1.0546650   -1.7906637 
H    -2.6225730   -0.0334482   -3.1824017 
N     2.2890738    0.0407802   -1.2975193 
C     1.8950323    1.0788570   -0.9264670 
H     1.2838030    2.3783154    0.6207994 
C     1.3485919    2.3468229   -0.4842370 
H     1.9742339    3.1886388   -0.8389773 
H     0.3173597    2.4320621   -0.9046687 
N    -0.7811929    3.8196868    1.8739047 
C    -1.4389472    4.1578182    0.9658169 
H    -3.3018294    4.6747515    0.1221762 
C    -2.2488739    4.5200424   -0.1853097 
H    -1.8698850    5.4526328   -0.6480771 
H    -2.1898142    3.6834378   -0.9220852 
H     1.5019126   -5.6614092   -1.9933083 
H     1.0409118   -4.6380193   -3.3963048 
H    -0.0369324   -4.7288639   -1.9709175 
H    -0.0743633   -4.5175404    0.3847293 
H    -0.1161405   -2.7326174    0.2696086 
H     0.6340478   -3.5230689    1.6902230 
H     1.2437889    2.0239306    5.8456658 
H    -0.5237300    2.3507591    5.7554615 
H     0.6033984    3.1921622    4.6416511 
H     2.2736135   -0.3708210    1.6579432 
H     0.5022948   -0.1004955    1.5911872 
H     1.1832904   -1.2156525    2.7993013 
