66
-1066.83943636766
C    -0.7562194   -3.1135178    0.2517023 
C    -1.2736130   -2.5719022    1.5851883 
H     0.0400866   -3.8688050    0.4025478 
H    -0.3446956   -2.3010915   -0.3775053 
H    -1.5715003   -3.5954263   -0.3267772 
H    -0.4293811   -2.1772051    2.1940765 
H    -1.7237772   -3.3948603    2.1818873 
C    -2.3155308   -1.4499834    1.4459511 
O    -1.7549609   -0.2814431    0.8251307 
C    -2.9574527   -1.0853994    2.7860006 
H    -3.1154047   -1.7883289    0.7489320 
H    -2.1843045   -0.7871628    3.5242752 
H    -3.5142418   -1.9464906    3.2083365 
H    -3.6612799   -0.2398633    2.6603749 
H    -0.9089640   -0.0216984    1.3021173 
C    -0.2980573    1.6571876   -3.9326371 
C    -0.7729950    0.2027947   -3.9772778 
H     0.2866802    1.9196441   -4.8372547 
H     0.3498125    1.8385630   -3.0531397 
H    -1.1580673    2.3523718   -3.8614492 
H     0.0933592   -0.4899916   -4.0826106 
H    -1.4052315    0.0408056   -4.8761640 
C    -1.5800802   -0.2284956   -2.7500293 
O    -0.7172311   -0.1604728   -1.6023326 
C    -2.1616435   -1.6350221   -2.8973600 
H    -2.4122309    0.4986358   -2.6069639 
H    -1.3553717   -2.3818156   -3.0510529 
H    -2.8567765   -1.6851204   -3.7601660 
H    -2.7297601   -1.9243436   -1.9906106 
H    -1.2442154   -0.2500363   -0.7458317 
C     2.6330398   -1.9326454    0.2524730 
C     2.6612166   -1.4013918   -1.1818436 
H     2.5241807   -3.0349643    0.2722617 
H     1.7946346   -1.4985456    0.8302904 
H     3.5709533   -1.6791233    0.7900454 
H     1.7478457   -1.7213667   -1.7307326 
H     3.5210443   -1.8430869   -1.7308251 
C     2.7601583    0.1292377   -1.2863035 
O     1.5803555    0.7752054   -0.7764257 
C     3.0489580    0.5967614   -2.7135410 
H     3.5853488    0.4778294   -0.6239945 
H     2.2746492    0.2232869   -3.4143067 
H     4.0322799    0.2212109   -3.0620656 
H     3.0572948    1.7027960   -2.7668267 
H     0.7593147    0.4155555   -1.2499754 
C    -1.0432484    2.0779421    3.5681952 
C     0.2902973    1.3851395    3.8595554 
H    -1.6947299    2.0931653    4.4646820 
H    -1.6010796    1.5623102    2.7624126 
H    -0.8868146    3.1299884    3.2511033 
H     0.1168192    0.3431569    4.2107575 
H     0.8163438    1.9068906    4.6872498 
C     1.2374039    1.3196799    2.6574509 
O     0.6289852    0.5001197    1.6538548 
C     2.6196471    0.7758275    3.0233557 
H     1.3580320    2.3564212    2.2535504 
H     2.5341910   -0.2477704    3.4418162 
H     3.1179222    1.4230500    3.7736668 
H     3.2724581    0.7260403    2.1289782 
H     1.1090683    0.6096826    0.7665307 
C    -0.7643653    2.9723500   -0.1461140 
C    -1.9653853    2.8127546   -0.9521925 
H     0.1428020    2.7748784   -0.7507190 
H    -0.7115839    3.9958996    0.2740671 
H    -0.7667403    2.2389344    0.6824328 
N    -2.9282489    2.6812534   -1.6062213 
