66
-1066.83662993750
C    -0.8519619   -2.5019088   -1.2869620 
C     0.2982595   -2.3874197   -2.2908846 
H    -0.7664577   -3.4357949   -0.6968457 
H    -1.8438575   -2.5163088   -1.7838231 
H    -0.8429088   -1.6576950   -0.5713832 
H     0.2947171   -3.2573354   -2.9838463 
H     1.2603782   -2.4380607   -1.7405940 
C     0.3122207   -1.1051615   -3.1456218 
O     0.4012746    0.0777649   -2.3378056 
C    -0.8998798   -0.9569757   -4.0607912 
H     1.2237298   -1.1507672   -3.7896067 
H    -1.8424937   -0.9134583   -3.4783586 
H    -0.9697987   -1.8121652   -4.7618853 
H    -0.8214082   -0.0250461   -4.6546600 
H     1.1149845   -0.0550597   -1.6285459 
C     2.5538509   -2.7945831    0.8625283 
C     3.3577177   -1.5267804    1.1630005 
H     2.6518420   -3.5311358    1.6849460 
H     2.8896389   -3.2939523   -0.0695509 
H     1.4783047   -2.5553135    0.7512464 
H     4.4279896   -1.7712270    1.3391955 
H     2.9917647   -1.0810367    2.1115622 
C     3.2941567   -0.4394428    0.0730400 
O     1.9392563   -0.1341227   -0.2728074 
C     4.0179973   -0.8124470   -1.2183616 
H     3.7676105    0.4809127    0.4889570 
H     3.5978569   -1.7356049   -1.6677124 
H     5.0971886   -0.9784562   -1.0304982 
H     3.9205947    0.0035612   -1.9621181 
H     1.3416651   -0.0452792    0.5380420 
C    -1.4690898   -1.0333381    3.8581371 
C    -1.4046240    0.4357486    3.4324292 
H    -2.4532870   -1.2798366    4.3044240 
H    -0.6927002   -1.2815695    4.6100410 
H    -1.3107934   -1.6945061    2.9830509 
H    -1.5014134    1.1053250    4.3151163 
H    -2.2733429    0.6715955    2.7811100 
C    -0.1218535    0.8222210    2.6717580 
O     0.0095245    0.0192521    1.4863205 
C     1.1531287    0.6644776    3.4932016 
H    -0.2083867    1.8955698    2.3754540 
H     1.3424605   -0.4029683    3.7247556 
H     1.0689043    1.2169801    4.4501778 
H     2.0196288    1.0749046    2.9393893 
H    -0.6675791    0.3172722    0.8070388 
C    -3.3774076    2.5339368    0.8549651 
C    -3.6348672    1.1772542    0.1918984 
H    -3.9869126    2.6482695    1.7733406 
H    -3.6292159    3.3799090    0.1840163 
H    -2.3127011    2.6417797    1.1428923 
H    -4.6978951    1.0969325   -0.1212682 
H    -3.4716166    0.3638727    0.9316030 
C    -2.7527255    0.8761189   -1.0276438 
O    -1.3856211    0.8822500   -0.6005418 
C    -2.9451698    1.8502065   -2.1928092 
H    -3.0145079   -0.1512094   -1.3808845 
H    -2.6950722    2.8865234   -1.8900109 
H    -3.9928905    1.8348420   -2.5567611 
H    -2.2844522    1.5771297   -3.0389403 
H    -0.7874319    0.5517933   -1.3554769 
C     1.0438345    2.9932423   -0.8329902 
C     1.9562068    2.8624252    0.2940410 
H     0.9139896    4.0595459   -1.1043569 
H     1.4278406    2.4346716   -1.7085717 
H     0.0559869    2.5530031   -0.5806505 
N     2.6858194    2.7666750    1.2058903 
