90
-94.468197969960
C           2.51721008364489   -0.32034622460461    0.98532453959409
C           1.37803076397705   -0.30362671224593    0.02142423854301
H           3.30963809565658   -0.97558781002396    0.62203970852826
H           2.19930694505944   -0.66584957237943    1.96595778467855
H           2.94016032529886    0.67954890919015    1.08215946606961
C           0.13743121517589   -0.63889469848017    0.32338867934353
H           1.63179354493018    0.00727254453894   -0.98501768104546
H          -0.13649166622900   -0.95774666008413    1.31554963682139
H          -0.65791468301043   -0.61745792826930   -0.40290772506584
C           2.41307836456271   -2.99319591405740   -2.48411393657882
C           1.05626167648432   -2.51063518555272   -2.87159723396209
H           2.33997618764777   -3.96768237138418   -2.00154232532374
H           2.86208788897313   -2.30701691699020   -1.76713690362451
H           3.06336994915128   -3.07806572073886   -3.35157181070840
C           0.67806021239667   -2.25189742653893   -4.10938019378204
H           0.36618155073434   -2.37402844063790   -2.04944630895387
H           1.34787366246360   -2.37798540760025   -4.94528687020249
H          -0.31636693774990   -1.91203035074668   -4.34676722696993
C           1.10453705774586    4.47556518159075   -0.95822815404639
C           1.35184991115760    3.44929775629618    0.09551289171795
H           1.89977600204061    4.44633410092047   -1.70341379406777
H           1.06173075984697    5.47434713218401   -0.53052093678757
H           0.16691400607911    4.26726398696253   -1.47325890565744
C           1.54128046041193    3.71640499836965    1.37370186876510
H           1.37245736634932    2.42511012488549   -0.25362444039030
H           1.52769095366727    4.72684918227075    1.74996501970897
H           1.71687661529440    2.94222253887611    2.10146277621719
C           0.09112723176521    1.48707120774658   -3.27731995592589
C          -1.10157381437072    1.89950016092723   -2.48265052562280
H           0.98993693816622    1.94754005077610   -2.86888969181635
H          -0.01287874330364    1.77691800473257   -4.32058966895570
H           0.22604451439514    0.40619198443031   -3.22316911290541
C          -2.15258871504177    2.52590517652191   -2.97761165880539
H          -1.06380549290170    1.64950508634303   -1.43022762154072
H          -2.21787914222186    2.78749393722777   -4.02173435010722
H          -2.99511731455791    2.80130767651696   -2.36570608568126
C           3.90054767574504    0.34364927302045   -3.59745027816592
C           3.80321750656310    1.64221384227150   -2.86968499620321
H           4.46780360256882    0.47104528657101   -4.51892828810813
H           2.90700818870111   -0.01370234878071   -3.86889114251030
H           4.38903758800397   -0.40969051731587   -2.98456459931109
C           4.19215690439199    1.83373972328447   -1.62335906364562
H           3.38016845193737    2.45985275148777   -3.44081744217816
H           4.62326267566292    1.03675062309745   -1.03972935468080
H           4.10041534315653    2.78632137062329   -1.12964271723592
C          -3.91072690940824   -0.42925138355155   -1.31195410783613
C          -2.88556748985161   -1.24172328228676   -2.02803568688061
H          -4.41933015510474    0.22740295935426   -2.01685616878916
H          -3.43707399151868    0.20385890819178   -0.56029556617233
H          -4.64615186365914   -1.06590135269854   -0.82596603676293
C          -2.83943651915286   -2.56108450653596   -2.03472170410677
H          -2.14768224655634   -0.66606745317665   -2.57267202727826
H          -3.56869195293898   -3.15504999431274   -1.50707692121341
H          -2.08105270857726   -3.10616700693126   -2.57139405191575
C          -0.28962262105309   -4.56193741371897    0.27858278244928
C           0.80746442913194   -3.95691514418043    1.08799585518043
H           0.12168205391039   -5.07058943905386   -0.59341572430304
H          -0.95990974971377   -3.78306567233190   -0.08415912315557
H          -0.86165983499188   -5.27774656668711    0.86436804534308
C           1.06504106379690   -4.25491967217114    2.34765771896607
H           1.40506584420951   -3.21693608040303    0.57301249563008
H           0.48639403233537   -4.98629771765133    2.88992388428494
H           1.86619229768141   -3.78482298198508    2.89258006636177
C          -3.27409015359577   -2.60417892524971    1.80322144356450
C          -2.34815534064112   -2.54672877633023    2.97122825913833
H          -3.51250010088525   -3.64143373908598    1.56789532055327
H          -2.80064380667673   -2.16875911160234    0.92391295354813
H          -4.19801674288361   -2.06857149783915    2.00910467165971
C          -2.61506722852111   -1.93367783459120    4.10909090338158
H          -1.40330384963153   -3.05748706331094    2.83300175876852
H          -3.54903937942653   -1.41864188803544    4.26914868147559
H          -1.91848436835560   -1.91969662073018    4.93035998445239
C           0.30928030578856    0.62382696470792    4.16781968455228
C           0.94249148618508   -0.71769348830089    4.31916196453295
H           0.30023891094486    0.92113604757095    3.11980535799333
H           0.84190401120288    1.37572562846601    4.74527072524871
H          -0.72791110179265    0.58968474736825    4.49923800296900
C           2.02693797862427   -0.96051804805553    5.03118238721496
H           0.44632600439048   -1.52460815148426    3.79455305901425
H           2.54086509302756   -0.17826117702810    5.56629940662050
H           2.44965921949235   -1.94767985730497    5.11387532093086
C          -2.28218878209343    3.56924004848727    0.97653510365412
C          -1.94637402108228    2.15795695967822    1.32157258261396
H          -1.62927834707241    4.24855718510242    1.52326272282987
H          -3.31753382611152    3.79700758214518    1.21904821944141
H          -2.11822865125743    3.74645746051933   -0.08583349278922
C          -2.79524000136012    1.28491379823056    1.83052409020590
H          -0.92074881997802    1.87083992735949    1.12642998446379
H          -3.82123273616473    1.54813772995051    2.03439628482711
H          -2.50505182131036    0.27783044257580    2.07528070544299
