18
-18.887610526981
C           0.52121517768417    0.14935770797725    1.17466297668329
C          -0.01034290576748    0.51143375293132   -0.17073333879463
H           0.55296305794312    1.02920257945016    1.81660013937065
H           1.53775498639302   -0.23284157217684    1.08305546798458
H          -0.09592596627622   -0.61107220063148    1.64657330684970
C          -1.05472204967246   -0.05689354208568   -0.74312086837538
H           0.52963692517693    1.29737662386779   -0.68425275896654
H          -1.61182391654731   -0.83951176161987   -0.25343343423502
H          -1.40171289039313    0.23253663901768   -1.72072178603087
C           2.94354168228316   -1.09978036263145   -1.80034613890542
C           2.92176357412635   -2.31120549123313   -0.92965418297231
H           3.53170329323100   -0.30971702311932   -1.33329877374604
H           1.93555069096191   -0.73309104013855   -1.97740116900421
H           3.41040699698035   -1.33334306201396   -2.75710027308145
C           1.82374914000693   -2.86865075334080   -0.45605324932946
H           3.89234612481150   -2.73110597112816   -0.69528570993099
H           0.84876248397432   -2.46585837887129   -0.67642524998854
H           1.85092290693638   -3.74446929315621    0.16994653891503
