18
-18.887600045999
C           0.06136946786249   -1.49125852738499    0.17141847469060
C          -0.30435545077375   -0.17776011149794   -0.43235753132543
H           0.61739358684359   -2.09282329188861   -0.54710900113154
H          -0.84013545319571   -2.04297272888775    0.43856566357809
H           0.66875715909022   -1.35534415796561    1.06288478113296
C           0.03892260113786    0.99733770614441    0.06084845609052
H          -0.89754141429583   -0.23528232895522   -1.33658124026200
H           0.62802935263750    1.08304640333642    0.95975552359969
H          -0.25052958751474    1.92277428397961   -0.40785022955001
C          -3.54174634725770   -0.27176372897866    1.32076034372517
C          -3.15781897701370   -1.57542991148732    1.93442374686570
H          -4.06587469662458    0.34599093573270    2.04948934566802
H          -4.18520995507348   -0.42127506573775    0.45719821129017
H          -2.64918605186272    0.27030180241455    1.00779896330859
C          -3.53116764410686   -2.75774716502752    1.48206821769457
H          -2.52409782195266   -1.50385980007280    2.80961274324548
H          -4.16103219241483   -2.85754941588949    0.61275406508111
H          -3.22715383513919   -3.67546196283093    1.95666934303050
