18
-18.887734977263
C          -1.12432681159126    0.00580714351732    1.08121438430373
C          -0.50465373374851    0.02603437131622   -0.27485751206489
H          -1.18922110661225    1.01816303962767    1.47928510998071
H          -0.54415494052419   -0.60641370926344    1.76731094194116
H          -2.13726113229959   -0.39120072360661    1.01899905921267
C           0.60033210615271   -0.61507118610040   -0.60565193043861
H          -1.03284327013439    0.61555537178336   -1.01346956207070
H           1.14591902378435   -1.20906689295905    0.11026859363985
H           1.01094224360979   -0.57468518638452   -1.60034952652907
C          -2.31132206073588   -3.20007298947732   -0.70299390150131
C          -3.27105862695074   -2.12812270110606   -1.09434326907957
H          -1.30230467086187   -2.79186307628999   -0.65058091625369
H          -2.30934569603646   -3.99312957650112   -1.45039400920419
H          -2.57306611554847   -3.62604144557849    0.26249923099700
C          -4.30280080282891   -1.74157267278445   -0.36806401902803
H          -3.06870472831526   -1.65443937588408   -2.04657382452411
H          -4.52706247751399   -2.19641170532898    0.58369414970617
H          -4.96952711647397   -0.95934840362817   -0.68939033932662
