27
-28.334269724582
C           0.68688876669416   -1.44926759829230   -1.93479202429386
C          -0.42337022417602   -0.45649444088904   -2.00848172657766
H           0.91548986333329   -1.83279929484879   -2.92873122730409
H           0.42383643049375   -2.28128331772986   -1.28661890737112
H           1.58690374427615   -0.96960158856913   -1.54893193143363
C          -1.54958945215613   -0.53610994475725   -1.32503224244123
H          -0.25219676520510    0.37699707983782   -2.67872324808048
H          -1.74854182014888   -1.35623862715093   -0.65396455320919
H          -2.32299439404361    0.20915737167485   -1.40483418985929
C           1.34337349450938    2.20548500700319   -0.03231326461466
C           2.52344705701737    1.52320301057571   -0.63638984371072
H           1.39619126501748    3.27875187792575   -0.21363050172958
H           1.30014568944876    2.02578116407423    1.03856276419270
H           0.42427682868221    1.83727266488265   -0.48809696118698
C           3.37945668010573    0.77703629400763    0.03598730530573
H           2.65175521416931    1.67467541298170   -1.70145654242098
H           3.27062035143656    0.61339017252395    1.09570465785578
H           4.22094729202049    0.30003413175024   -0.43868354357969
C           1.56564346245337   -2.12867482281298    1.79987370393491
C           0.71969619954943   -0.90834751234705    1.94304080750348
H           0.95009035361458   -2.98020384148495    1.51000961053248
H           2.07416747274717   -2.36535579064015    2.73153081278635
H           2.30868114683031   -1.97846970809720    1.01731093161327
C           0.58964539017897   -0.21625088591784    3.05887841927998
H           0.19693031452346   -0.60134995022410    1.04693042550007
H           1.10151420730656   -0.49802050313134    3.96530700719452
H          -0.03482209553135    0.65919198591682    3.11956623504477
