27
-28.334323423348
C          -0.14982481780549   -1.25765583591895   -2.20971272362774
C          -1.63233924131596   -1.30459828032964   -2.05573607957954
H           0.11196914416431   -1.05090533549356   -3.24714477577123
H           0.30518467514626   -2.20055953898826   -1.91473106752985
H           0.26391278364073   -0.45395953200720   -1.59940418713734
C          -2.30822215797125   -2.33491126323952   -1.58189977775748
H          -2.15513806711828   -0.40800375717552   -2.36477924518155
H          -1.81550275913922   -3.24230346632528   -1.27057420525968
H          -3.38173387670778   -2.32281190127516   -1.49090639586445
C          -2.46468551795704   -1.77121861504203    2.15083529250961
C          -1.04557822191080   -1.87921143172667    2.59802244715136
H          -2.89741262745281   -0.83162138366654    2.49424598505383
H          -3.05611379434912   -2.58034724497364    2.57913526386526
H          -2.53320229614039   -1.81900642785799    1.06659175794251
C          -0.01570502789905   -2.00286809822230    1.78252717461370
H          -0.89363980841170   -1.84933837810454    3.67002095108641
H          -0.14644535213997   -2.03192230406232    0.71348474207347
H           0.99610065768991   -2.07872768963716    2.14412872309790
C          -1.50270528960477    1.58627468445919    0.33794870407534
C          -0.03634012523047    1.36599024698438    0.49609651342169
H          -1.99918227070247    0.63928146686405    0.12966381960483
H          -1.71018021198629    2.28303596752555   -0.47090976894338
H          -1.92301696168390    1.98248980263032    1.26196856205741
C           0.89167762473495    1.93619085355327   -0.24945358611170
H           0.24074759444575    0.67516805525465    1.28241798316279
H           0.63941278705801    2.62367627167101   -1.04116378183430
H           1.94146168032415    1.74535154214058   -0.10294256092250
