27
-28.334053587641
C           0.90769667471321    1.03484506262139   -0.65613418904910
C          -0.26691316669690    1.04299621225573    0.26267678028638
H           1.21681266025965    2.05552864863559   -0.88005229511874
H           0.64117691363704    0.55436651437507   -1.59734724145902
H           1.74451587870243    0.50084889215339   -0.21312784161801
C          -0.30333513902165    0.44664003514470    1.43908501923615
H          -1.13135559977605    1.58628594922234   -0.09889075672255
H           0.54320625508035   -0.10019850408175    1.82168841759138
H          -1.17428034627629    0.47727596215768    2.07160727438453
C          -2.50339645867377   -3.99789116315629    0.62269513608598
C          -2.00364151326637   -2.95307685189693    1.56185832283614
H          -2.34488281609726   -3.67929159911466   -0.40735690235669
H          -3.57403625075875   -4.14665671796552    0.76189185688932
H          -1.99266503321925   -4.94406967487861    0.78398525127301
C          -1.06117877364060   -3.14363105670530    2.46516105667740
H          -2.47092642171963   -1.98162327217125    1.46162996084276
H          -0.57764402126829   -4.09971149071943    2.58518774597695
H          -0.73130766737768   -2.35822134936929    3.12346359361051
C           0.60485716051562   -2.67872793671455   -1.06603752496315
C          -0.34234885272214   -2.38018663385568   -2.17863671218270
H           1.61529202057827   -2.37805683893482   -1.34253467651753
H           0.62386807605302   -3.74984153288787   -0.86671490936970
H           0.31232562371434   -2.15772473616494   -0.15828850799290
C          -1.38711398881608   -1.58057873551206   -2.07358735340971
H          -0.12578145644939   -2.87293911903764   -3.11891920675280
H          -1.61816336618315   -1.07845083445454   -1.14815277610205
H          -2.04948745008438   -1.39108612621848   -2.90173956756741
