27
-28.333930837936
C           1.36347669203931    1.67969723818377    2.20912009869519
C           1.88701641400820    1.41874407960768    0.83685724857883
H           0.90868766942823    0.77628506209107    2.61547562930149
H           0.62293103120965    2.47629305066785    2.20299631260347
H           2.17971441948228    1.96367332285453    2.87292492307448
C           1.48643993387757    2.04983749017397   -0.25080623331068
H           2.64394809806106    0.64774848552795    0.77120688070146
H           0.73507593390632    2.82299151784108   -0.21617814239540
H           1.89633664692063    1.83166062547896   -1.22286067109119
C           1.22301724635332   -2.31317015735974    1.11249938004333
C           2.28869193285288   -2.64891259578253    0.12402548480668
H           1.65821245068303   -2.18914912793025    2.10429010871685
H           0.49789341037929   -3.12458896645856    1.17331027213035
H           0.70322503186753   -1.40010850980729    0.83468367631289
C           2.57541708583891   -1.92780717153691   -0.94311470121711
H           2.84399972910224   -3.55538349855501    0.33246067322222
H           2.03926287191176   -1.02155073541762   -1.17145925900778
H           3.35550035230753   -2.20868019638525   -1.63054650938354
C          -1.09983533892535   -0.58391767375183   -1.58471362073614
C          -1.92040391697138   -0.75300480084030   -0.35087125305725
H          -1.74643900824673   -0.43514445015982   -2.44938594482485
H          -0.50712143664251   -1.48033990370856   -1.76655046022193
H          -0.43288010639605    0.26997171877635   -1.49022175738929
C          -1.84783548761591    0.03325862021255    0.70627914355695
H          -2.60766126349947   -1.58983166747017   -0.36242131925973
H          -1.17033501544804    0.87053344705629    0.73814478755214
H          -2.45702700728346   -0.12364671437905    1.58033365536964
