36
-37.781386455479
C          -3.12821323944851    1.11563641569462   -1.53749926806192
C          -1.87198282113384    1.78140907406275   -1.08515212957406
H          -2.90640175901735    0.12416910384881   -1.93240023451057
H          -3.59092447862252    1.69255713637854   -2.33834475919646
H          -3.83870509360055    1.02033421270542   -0.71959058690517
C          -1.64787759547765    2.20227044190564    0.14504672554183
H          -1.11735826362146    1.90621053048572   -1.85069872182176
H          -2.38239349297398    2.08779019797435    0.92619764574520
H          -0.72559900354271    2.68093521491366    0.42804162939814
C           1.95931038335954    2.43795345326388   -2.12125985858983
C           2.08517591936210    1.62792505651449   -0.87526031013403
H           1.25850805911325    3.25770033755273   -1.96226377509975
H           1.56701140475488    1.82183933192789   -2.93008760230119
H           2.91992442449324    2.85073296961353   -2.42010799823222
C           3.20400715130126    1.47456196245049   -0.19222264687682
H           1.17124687268027    1.15282615344212   -0.54280004873437
H           4.12691485162933    1.93694852193400   -0.50406430943000
H           3.25046000982962    0.88708280999996    0.70945085490302
C           1.65954288420930   -1.37771989334576   -2.97038619847591
C           0.30706992477926   -0.75005701562341   -3.00884199344301
H           2.30803213120018   -0.82244687889672   -2.29267315030751
H           2.11316370294163   -1.39482151767967   -3.95868385641260
H           1.58797021846336   -2.39801673522216   -2.59557178316902
C          -0.25188417246028   -0.24638258799821   -4.09320677320514
H          -0.21251721986127   -0.72252955868988   -2.05914004105656
H           0.24853174397843   -0.26251883472125   -5.04858138314902
H          -1.23077690920237    0.20219170812412   -4.07988751494203
C           1.34416974371949   -1.98729325183579    0.87068765978332
C           0.07878656443489   -1.19843815628751    0.90525474742304
H           2.12144151225404   -1.42589773648466    0.35309633475026
H           1.19782949292298   -2.93754268691730    0.36288763661472
H           1.69502084364659   -2.17951496138888    1.88450393387199
C          -1.06356505517732   -1.58899281223976    0.37267699891300
H           0.14132052010619   -0.24196220657314    1.40894943346220
H          -1.15765460681688   -2.53632126651492   -0.13424030192905
H          -1.95079116365861   -0.98174478004914    0.42049771820176
