36
-37.780766080464
C           2.29698383373924   -1.57866708463931    0.91048103467908
C           1.00605323947794   -1.79997378520921    0.19605264695013
H           2.85069201122996   -0.76317615376604    0.44587986146949
H           2.91212481409603   -2.47532210051725    0.89810308286262
H           2.10831859339016   -1.29547172281043    1.94594505018587
C           0.64891494374299   -2.93913153658094   -0.36616981189369
H           0.34364322066046   -0.94505441364314    0.16382557316622
H           1.28875096751251   -3.80701774089761   -0.34714592661854
H          -0.29684797702274   -3.05683669362935   -0.86770831246328
C          -0.59616079893801   -0.33437533315267   -3.07267406694948
C          -1.60147069954360    0.28164382952590   -2.15997348359606
H           0.09016720419976   -0.96182374325319   -2.50483882974103
H          -0.00525573421048    0.44434671098254   -3.55377341891325
H          -1.07839022181606   -0.93633401084368   -3.83927401845163
C          -2.90752351014378    0.12523346794758   -2.26822154252401
H          -1.18653591252028    0.89244642296642   -1.36845927725239
H          -3.34371377983161   -0.47849089989375   -3.04809169901205
H          -3.59968799307656    0.59297003578240   -1.58843640361570
C          -0.06031059795942    3.23921402191189    0.43645179610811
C           0.88768469712490    2.13153113806491    0.12100116556251
H           0.32496359017215    3.84037056272187    1.26002521948906
H          -1.02081453122756    2.83069564252239    0.74964922458562
H          -0.21330513073056    3.88216807579356   -0.42708420589856
C           1.48198404283258    1.96507173093397   -1.04525213232920
H           1.06758564282857    1.43638030563656    0.93098238631535
H           1.31539295601499    2.64377549375252   -1.86636114090998
H           2.15521762092606    1.14669987778236   -1.23589325662718
C          -2.53254764232416   -1.34395140032588    1.19081708110031
C          -2.13546139537853   -0.02571718207435    1.76256440103300
H          -2.49598447388479   -1.30441260002672    0.10223738657855
H          -3.55671322037714   -1.58218944790021    1.47802759273775
H          -1.87326175271740   -2.13488995320870    1.53923244721507
C          -1.13427925957876    0.15719351331548    2.60238744981486
H          -2.73860612200672    0.81521292740878    1.44225489078543
H          -0.52366393549835   -0.66627333673785    2.93600509548473
H          -0.88350950569317    1.12763646555651    2.99664936854228
