36
-37.781353171845
C           1.28423777743963    0.74277043775501   -2.58412494124360
C          -0.15653072614969    1.01303031031023   -2.31083302833805
H           1.71814704170980    0.17218825393744   -1.76309204858792
H           1.83342767558795    1.68100603481663   -2.66152731937695
H           1.41009374727730    0.18599604258948   -3.50974466895015
C          -1.15220508932807    0.63913656800568   -3.09205219272923
H          -0.35779457783340    1.55171843576091   -1.39395753648504
H          -0.98057141166789    0.10060518047166   -4.01067792296941
H          -2.18018875539122    0.85624688777962   -2.85518350962137
C           0.52832904095422    0.89100477355850    3.09838669006699
C           0.58709807950285    1.57818320716765    1.77569962503005
H           0.06527558922909   -0.08939088618765    2.98991604686500
H          -0.08042348737893    1.46754830236843    3.79437665565572
H           1.52287469183249    0.76628370116819    3.52011878140861
C           1.70046286772437    1.95127729607225    1.17406008632090
H          -0.37481952619871    1.76068302609721    1.31240738907041
H           2.66866352545999    1.77982671965739    1.61659582405419
H           1.69824733586130    2.44419925111220    0.21708096460870
C          -2.90857765340743   -0.85032343321114    1.63527955890848
C          -2.77773627467500    0.11205144920918    0.50284676953578
H          -1.99255285074953   -1.43080332827853    1.74509952582659
H          -3.71965076525865   -1.55168214762718    1.43859320081008
H          -3.11275094557293   -0.33087219554269    2.56851705625835
C          -2.91999719585738    1.41958928129091    0.61212991096111
H          -2.54638852445829   -0.33000082206214   -0.45774747946355
H          -3.15068551540563    1.88835360986900    1.55569785735183
H          -2.81919447194304    2.07887726307233   -0.23379380106717
C          -0.20130843724957   -2.52365240644360   -0.96322458652915
C           0.51815857217308   -1.64866526402834    0.00718846074154
H          -0.36163513065947   -1.98641493679263   -1.89741705626843
H          -1.18037903153554   -2.79752169566749   -0.56992312398299
H           0.36145890251053   -3.43196231575260   -1.16488156072012
C           1.66091999579716   -1.95394200311863    0.59189597338787
H           0.04084607052313   -0.70032018143103    0.21706431279149
H           2.16562370224828   -2.88765551084865    0.40149920775749
H           2.14158781990571   -1.28219313551866    1.28236567039981
