36
-37.780671060158
C           1.26209314817535    0.75458112305616   -2.65739735794029
C           0.56365988191445    1.79369961798010   -1.84739013106801
H           2.30210448799605    1.03808189402604   -2.81601356244516
H           0.77930311767096    0.62423960577731   -3.62268616466820
H           1.25478516886336   -0.20056486984148   -2.13123769293686
C          -0.53705445296202    2.42047126676442   -2.21826629873887
H           1.02142726600988    2.02145587023088   -0.89245895879647
H          -1.01209834643409    2.21672109553401   -3.16461765397943
H          -1.01140377620914    3.16375663113209   -1.59993412165078
C          -1.06607761273408    2.19971365417235    1.99414787642950
C          -1.72584359759577    1.11836490759778    1.20603242784927
H          -1.23599554271534    3.16603947106535    1.51972379899909
H           0.01071210613268    2.03661879578499    2.02841711459709
H          -1.44953168343521    2.23451678870609    3.01115573395202
C          -2.65122967775650    0.30535592403396    1.67915469421061
H          -1.39220060786616    1.02918241769660    0.18013706897885
H          -2.99978527763784    0.37385806065432    2.69744056116840
H          -3.10243250048526   -0.46253322806256    1.07399739309070
C          -1.76075236242247   -1.40837867241852   -2.05645279578804
C          -0.79369142769475   -1.96192646695643   -1.06469692815220
H          -2.76975158888981   -1.75123557645930   -1.82875104482871
H          -1.50397772876769   -1.71631582326675   -3.06720991493020
H          -1.76473565683836   -0.31961890270323   -2.00918875795294
C           0.24855380042569   -2.71159983471907   -1.36982533314410
H          -0.98813863080366   -1.70634204342733   -0.03109337620829
H           0.47265999435698   -2.98680054107455   -2.38836860074810
H           0.91794644941313   -3.08418075028943   -0.61353226960283
C           1.81549993565566   -0.56133641473860    1.39960505164506
C           0.85322474475010   -1.40413504408858    2.16694618070953
H           1.33282796870932   -0.17084803173331    0.50465915006861
H           2.69169441351448   -1.13450544002872    1.10632123368322
H           2.13776567342629    0.28714139170278    2.00359907462883
C           1.04477721591881   -2.67480448249005    2.46579628317994
H          -0.05457165872285   -0.90144906637184    2.47594333062394
H           1.94015059447180   -3.19814130374046    2.17030613588185
H           0.32035368114781   -3.24855293138083    3.01816667595160
