45
-47.227916468772
C          -1.59388710759073   -1.70068977818936    2.54442566600901
C          -1.06702633964287   -0.37948444940753    2.09448936061845
H          -0.76894488518718   -2.38836750071911    2.72886925648391
H          -2.21780676087822   -2.14098960963741    1.76703860367744
H          -2.17970377754676   -1.59990957315467    3.45514824244057
C          -1.26183817788120    0.76106214071693    2.72873503415761
H          -0.48680235754708   -0.40085256774926    1.18138442368855
H          -1.83516796870788    0.81212016539759    3.64075975355665
H          -0.85742208299197    1.69058265511088    2.36645148453472
C           3.52192186493681    1.35956665487194    0.03508804119059
C           2.45795374910351    0.98070199397205    1.01080210665165
H           3.77303273873280    2.41401790590655    0.14958932136001
H           3.17018918027036    1.21634273193377   -0.98639027991067
H           4.42116200468397    0.76682668193217    0.18532829340899
C           2.60051887160776    0.07608492233915    1.96072429713509
H           1.52140845812418    1.51290436135748    0.90206567445253
H           3.52302788052340   -0.46712402728504    2.09256671140086
H           1.80396949043955   -0.15547265288324    2.64745473630197
C           1.72329135127918   -1.95858662770407   -1.12656917445979
C           1.13280339957573   -2.75088097598857   -0.01009409952740
H           2.80649036733019   -2.07657337691359   -1.13627174857807
H           1.51538196292393   -0.89922324296716   -0.97916863151540
H           1.32490202907357   -2.27496053207820   -2.08785623319540
C           0.26707753196546   -3.73481564986975   -0.16496411900693
H           1.46365124890016   -2.45945946361340    0.97849612986192
H          -0.07340458879529   -4.04131399824552   -1.14131353350408
H          -0.13696957132864   -4.28132849665015    0.67028519642097
C          -2.07769212602571   -1.44215338469619   -2.93988943833007
C          -2.19221799532958   -1.15526434432268   -1.47976283463878
H          -1.06562292681131   -1.23552465260928   -3.28781665950264
H          -2.77701210334693   -0.83903310271903   -3.51397877693612
H          -2.28194686119742   -2.49548641559636   -3.13192400107020
C          -3.04007409491778   -0.29379568467251   -0.95066286243386
H          -1.51653343793740   -1.71660373395089   -0.84674873099992
H          -3.72278617506728    0.27588350205139   -1.56098420971893
H          -3.08803629867941   -0.11818266283881    0.11079644740897
C          -0.14524436930757    1.86466472314885   -1.88043083431613
C          -0.67325822506941    2.54980760000362   -0.66604703493974
H          -0.86149272560397    1.94934177200790   -2.69711091049337
H          -0.01134009476075    0.80265085703278   -1.67792589848322
H           0.80262029438053    2.29530493146947   -2.19515473264262
C          -0.08891257639389    3.57123095508316   -0.06855235942076
H          -1.59918859374345    2.14352502588616   -0.28035194767040
H           0.83521106278611    3.98982688230087   -0.43443863402084
H          -0.50590445318646    4.03849405259664    0.80772097453498
