45
-47.228254840717
C          -2.30126466125022   -1.14682976275603   -0.85378023333528
C          -1.40488588102286   -1.70235816673275    0.20016091977272
H          -3.11684812914396   -0.58944243029013   -0.39359463634206
H          -2.72058436300578   -1.93796697368619   -1.47116168920454
H          -1.74789815492423   -0.45070386294929   -1.48313974348619
C          -1.19522236785087   -2.98944350412891    0.40397208360473
H          -0.90796913451131   -0.96496564072237    0.81671246301719
H          -1.67538010791879   -3.74618265200499   -0.19630543317473
H          -0.54158437048489   -3.34751611943808    1.18145848817817
C           3.11171033712905    0.90347070728709   -0.17057334045688
C           2.26141217839380   -0.32253642281906   -0.14401154652324
H           2.54806404436850    1.76250203703494    0.19267921601743
H           3.41719129043432    1.12528344988586   -1.19324379248878
H           4.00311177312388    0.77778400972741    0.44000002346666
C           2.56587080023543   -1.43236533203174    0.50087668871294
H           1.34175082015591   -0.26073779231691   -0.70984371789112
H           3.47444126174414   -1.52800112704410    1.07411155333053
H           1.92022143521324   -2.29361678918900    0.48113613901598
C           0.80755415266239   -2.31531703534508   -2.91571735593400
C           0.34456324143647   -1.04877145497357   -3.55173560550669
H           0.22240011216374   -2.52012611954618   -2.01932390629846
H           1.85752126113929   -2.25304021364161   -2.64089795581507
H           0.66755354123522   -3.15123577721813   -3.60082257040722
C           1.09910986511601    0.01797889064611   -3.73633168182953
H          -0.69026491149767   -1.04278173930490   -3.87130453950498
H           2.13292355227821    0.03593350684822   -3.43104703329014
H           0.72279326375959    0.91354111574324   -4.20176427012620
C          -1.98901174958534    2.28024528443464    1.08865534263489
C          -0.78192077915344    1.95416873509624    0.27517163204820
H          -1.74490384359742    3.03300099874949    1.83797078920231
H          -2.33324390740338    1.39240680206473    1.61801285671741
H          -2.79500480407035    2.65582234188259    0.46264643032192
C          -0.68565739736930    2.13630748004290   -1.02817678515239
H           0.04543457400419    1.53482610907830    0.83335313000692
H          -1.49964515366509    2.54828472855893   -1.60345227708945
H           0.20334990058443    1.88220334704033   -1.58009646117782
C           0.80521716086294    2.20383294588424    3.86492616271211
C           1.18224710016673    0.88530637384384    3.27661597749147
H           1.49826724335364    2.46994463195109    4.66301921224101
H          -0.20334937490968    2.17625073235603    4.27045345127116
H           0.86202787574244    2.98603188345159    3.10777804070664
C           0.40782600930292   -0.18288065749164    3.26669239310988
H           2.16962519783974    0.83884479407916    2.83559479816300
H          -0.58121309330367   -0.17183130444875    3.69626169080712
H           0.72950735849862   -1.11152154418863    2.82771079261026
