45
-47.228908297531
C           1.18127451763125   -2.56337630123488   -0.11937569824933
C           1.59937397620271   -1.19581726960006   -0.53850427460550
H           0.82134298103371   -2.54168562044581    0.90913608016641
H           2.00621559108790   -3.26780549962726   -0.19567337861044
H           0.35822323131445   -2.90630409076626   -0.74588007893990
C           2.81155464574637   -0.87362469571493   -0.95001523587010
H           0.82165024131646   -0.44542489646826   -0.48625160207382
H           3.60249108548212   -1.60401070384669   -1.01014516467559
H           3.07359125629445    0.12955585562801   -1.24247173116542
C           0.16380387799676    2.23433457400878   -2.23914417892679
C          -1.01899146614669    1.79240253090782   -1.44491776519847
H           0.93188265297744    1.46107430304185   -2.23154155572331
H           0.59496107182372    3.13272961584907   -1.79767648090945
H          -0.11193122763343    2.44699623056600   -3.26955962192420
C          -2.23767533207952    1.65039881259214   -1.93081456697604
H          -0.82189622050404    1.58797333741207   -0.40044472943914
H          -2.46320065144688    1.85236620479017   -2.96615107431318
H          -3.06506927123343    1.33512322372558   -1.31755700373755
C           0.00026554301966   -1.41573021590368   -3.78679652267287
C          -0.94715063261629   -2.38169803902960   -3.16000468906039
H           0.14129323354693   -1.65633460707098   -4.84019383596908
H           0.97353681206446   -1.47609645376865   -3.29934343664421
H          -0.37417082709806   -0.39936008233280   -3.70048891580791
C          -2.06723860836539   -2.03861755787553   -2.55227295990698
H          -0.66062682862344   -3.42419039871431   -3.23034478936729
H          -2.36989983928461   -1.00659526430010   -2.47603882790387
H          -2.72649828047893   -2.76616142753598   -2.10938895849886
C          -2.16522167967522   -1.05945877862377    1.08611420052931
C          -1.09708862082501   -0.69589360817881    2.06087786761069
H          -1.76659983858342   -1.05855567279367    0.07176575268963
H          -2.97125751061476   -0.32708842860557    1.12353527759863
H          -2.57295520471622   -2.04421524580096    1.30180830683001
C          -0.67254599867431   -1.48053728332551    3.03349095934730
H          -0.65907344403779    0.28499014887411    1.92689199743536
H          -1.08992026096547   -2.46215790616265    3.19331857937486
H           0.10602914060951   -1.17941161935846    3.71372170080497
C           2.32529530608654    1.07970755579813    2.35542595524763
C           1.60797640310331    2.06853017903359    1.50070569523599
H           3.38043743431021    1.34298553576677    2.42641791237553
H           2.26355780400791    0.08727104220104    1.90915506868613
H           1.90152918708641    1.04868739447892    3.35622497222544
C           0.59364460325246    2.81221602561894    1.90113834578489
H           1.97442412392329    2.14845110748383    0.48527895069840
H           0.21018672700725    2.75137243184123    2.90732635079584
H           0.10259547691143    3.51510861405583    1.24903171450536
