54
-56.675467903695
C          -0.72731388118370   -2.46091633967621   -2.26684176659710
C          -1.35421439036353   -1.54883465167990   -1.26684352719905
H           0.28209707109801   -2.72345552340331   -1.95221745739785
H          -0.65180317868124   -1.96297142770780   -3.23330422690524
H          -1.31069544826000   -3.37082561092635   -2.38552557075014
C          -2.49002959294453   -1.78950545024132   -0.63915270346715
H          -0.80780251951958   -0.63426869217282   -1.07256637524693
H          -3.05192662171191   -2.69273024657566   -0.81659692483355
H          -2.90834589557607   -1.10192714550256    0.07650535679031
C           2.15827048865974    2.18144257959198    0.35263789604887
C           1.68676678843604    1.88897586176734    1.73702440629077
H           1.69739173582118    1.49938990344070   -0.36091489349082
H           3.23946342776094    2.08918267898999    0.28134898779183
H           1.87114332467569    3.19269794365103    0.06596360650467
C           2.47863608028769    1.57560487882960    2.74531626017728
H           0.61576182330218    1.94697253492837    1.88714757413795
H           3.54795811805673    1.50518656646139    2.62646756730094
H           2.09645716422031    1.37875132778957    3.73278587854516
C          -0.69691951537362   -0.70020848551559    3.73243482851779
C          -1.32855478476885   -0.00285138420610    2.57510661973965
H           0.38801030069240   -0.62102690561759    3.67160874857762
H          -0.95129596266322   -1.75991613646002    3.71309311948580
H          -1.03164719683781   -0.27549484677426    4.67586025028889
C          -2.21117009546131    0.97300085399743    2.67524496493683
H          -1.01846372826234   -0.35631310478473    1.60037510886617
H          -2.53861973339770    1.34335564029643    3.63372099013349
H          -2.64239175617951    1.44405413772580    1.80777849484263
C          -1.47621205526930    3.88749458333066   -0.00745684479794
C          -1.70850240744640    2.51797322247731   -0.55107566444517
H          -0.60206400955940    4.33393095760905   -0.48103795592926
H          -1.27964256553270    3.83943740020005    1.06357029112767
H          -2.33682004165743    4.52950337519831   -0.18015551791606
C          -2.80564865043361    2.13174184193150   -1.17400033947556
H          -0.89244781152517    1.82301238471993   -0.40518914568196
H          -3.63276164051660    2.80513288957287   -1.33365903756660
H          -2.92814150215777    1.12953236044749   -1.54829779198802
C           1.74857495563429    0.31188246811965   -3.23746352134190
C           0.61285212790572    1.27849169775306   -3.19617420944336
H           1.68186283910736   -0.38901695456669   -2.40499114691362
H           2.70320078702530    0.83037217997776   -3.18648219601908
H           1.71372829441105   -0.26966397581316   -4.15869311246347
C           0.74491821633848    2.58836945308782   -3.10948540308491
H          -0.37560428327637    0.83925944356312   -3.24095254788151
H           1.71441273270956    3.05809749800926   -3.06250863721501
H          -0.10817687359198    3.24428726522229   -3.08080436924327
C           1.02885234488289   -2.94486781727050    1.08047757585294
C           1.83663723274522   -1.75289411699888    0.69128767463521
H          -0.02990619244610   -2.75890226124996    0.89954469435685
H           1.15211190357392   -3.14657560914118    2.14411344984624
H           1.33255031666721   -3.82537006293614    0.51878972148287
C           2.78063848868436   -1.75464792831335   -0.23110265907981
H           1.60881417515980   -0.84046441530652    1.22775346371154
H           3.03771793151405   -2.64679731502685   -0.78051943707857
H           3.34635794143515   -0.87024629616556   -0.47002765706650
