54
-56.674924037495
C           2.72444952773800   -2.71178167105076    0.46018179424623
C           2.62940138149517   -1.22282434334141    0.47629546561705
H           2.38378221664184   -3.09888363480606   -0.49959749727687
H           2.08450835009346   -3.13975539605535    1.23181343451636
H           3.74669708178101   -3.03981791206376    0.63336801070667
C           3.63990410873381   -0.41171132456791    0.72674672736428
H           1.64880293532419   -0.81706962996792    0.26175953143553
H           4.62801844475788   -0.78711808612301    0.94046092875352
H           3.52723328159631    0.65908636721600    0.73029176471805
C          -0.78758663120144   -1.21152147021137   -3.69978537302633
C           0.42470532744099   -0.85329198203195   -2.90684564429461
H          -1.06931030108727   -0.37830577892594   -4.34348497882161
H          -1.62895566189927   -1.41265107194158   -3.03764828089742
H          -0.60612526609595   -2.08671310459807   -4.31911936555825
C           1.58332913001672   -1.48052309001347   -2.98410232163902
H           0.31004740875229   -0.00666960966650   -2.24192533861319
H           1.72885044658373   -2.32354529169376   -3.64100759182070
H           2.43504354186418   -1.17927416272457   -2.39787735948937
C          -2.73605610879207    0.56571648008042   -0.81829590508854
C          -3.13005150722469    1.48601639247764    0.28638840110156
H          -1.70044854909713    0.25378912699167   -0.68876860185478
H          -2.84286619867341    1.04744476513159   -1.78715959344903
H          -3.35438541042356   -0.33095324949468   -0.79754862430489
C          -3.52983915954479    2.73215513193476    0.11711095010916
H          -3.06206862442215    1.06524043976259    1.28129418681450
H          -3.60585317716338    3.17553199993642   -0.86315860540443
H          -3.80201686344389    3.36405628849480    0.94571947917106
C           0.92379041600136    0.32058292642315    3.51815910961703
C          -0.01808872744345    1.05859172717388    2.62689419324790
H           1.74968501126242   -0.08874690550678    2.93555263418187
H           0.41138607779680   -0.51445386599082    3.99611197314074
H           1.32563832175676    0.97391366732416    4.28889624602675
C          -0.31643824231446    2.33863718422885    2.74387765307988
H          -0.47029797463854    0.46704804217376    1.84117800631484
H           0.11720558140103    2.95327102755324    3.51648960090703
H          -1.00243191938514    2.82672307079249    2.07280883033663
C          -1.06257512551663   -2.96897740318549   -0.08590240574710
C          -1.15737961665608   -2.31622853048717    1.25185956427105
H          -0.43058311586967   -2.38214636813427   -0.75280529706488
H          -2.04583524869180   -3.08146947223778   -0.53662742635173
H          -0.60742013965820   -3.95473271229574    0.01045037340575
C          -2.28345629446240   -1.94624467796868    1.83168753626363
H          -0.21197627138711   -2.15389281476195    1.75352887134003
H          -3.24106817314261   -2.09758847990199    1.36008696778545
H          -2.30152250716042   -1.47797566272059    2.80139318143613
C          -0.04936992261693    2.96919554519105   -2.81666664031996
C           0.10063329445522    2.72774167965589   -1.35149185052832
H          -0.94642309012957    2.47576681010238   -3.19034164218859
H           0.81236097945475    2.59656797612901   -3.36562538665494
H          -0.15757956808322    4.03619352967631   -3.01120751648905
C           1.15516873365270    2.16941827365236   -0.78778296593111
H          -0.73676098335229    3.04182815515040   -0.74180550246043
H           2.00352523615403    1.84390261930033   -1.36917282240272
H           1.21320378260177    2.01653256162364    0.27664586631973
