54
-56.675706066244
C          -2.35135804484458    2.40064353612995   -2.03410078189415
C          -1.77623441297030    2.33964947572572   -0.65883703752946
H          -1.57192185333122    2.64944094948245   -2.75413337953942
H          -3.13540900207564    3.15165549656837   -2.09693872121209
H          -2.76014498007995    1.43089792043416   -2.31467026995095
C          -2.09108359489994    3.16571873054739    0.32105468351771
H          -1.05185380664157    1.55239008196396   -0.49223173804315
H          -2.81102397362090    3.95722928660276    0.18529835030792
H          -1.64152814211063    3.09349253237336    1.29667685938507
C          -3.92809030447183   -0.57589359898986   -0.29529718663723
C          -2.66621144818992   -1.19000779726421   -0.80003104753102
H          -4.28885414561706   -1.12758524853923    0.57199338205922
H          -4.70074075944287   -0.57695328610376   -1.06085578694962
H          -3.74231425130815    0.45003996292796    0.02164772501021
C          -2.49756938822536   -1.65729539990070   -2.02285654358585
H          -1.86004139979046   -1.23424165402166   -0.07840534422794
H          -3.28765734655184   -1.62404823403577   -2.75663782650939
H          -1.57101316893913   -2.10211014846024   -2.34449411088971
C           1.25234783594534   -2.23019788276079   -0.97596184282291
C           2.47815477376712   -2.00117500424676   -0.15838022927028
H           0.66442840629576   -1.31457818792275   -1.03082870031264
H           0.63812450544774   -3.02185863582627   -0.55318452892470
H           1.52831458070822   -2.50146025429684   -1.99465349284493
C           2.78991914409714   -2.67493379593931    0.93263145995893
H           3.12742656113271   -1.21364656300787   -0.51920148116650
H           2.16022919807360   -3.46465229195588    1.31067911227522
H           3.68576440147288   -2.47327879248507    1.49521847225800
C           2.87223285122289    0.99326004674661    2.15962637646792
C           1.99693891815727    1.60723897056398    1.11972555536941
H           3.75539580661306    0.55666094009893    1.69428358189026
H           2.34108251947632    0.19001776950621    2.66941765744630
H           3.18744888239080    1.73195571823282    2.89277628956532
C           1.65422057144482    2.88123019835130    1.08495504551974
H           1.64359997774664    0.92579215734562    0.35663537481158
H           1.99586288189440    3.57904768717560    1.83287469700156
H           1.01621406216698    3.28409977833385    0.31670138041961
C          -2.29165135736862    0.39143799718308    3.12431111114104
C          -0.98748565663658    0.03486654275825    2.49395621260695
H          -2.12211178500006    0.95282479906832    4.04314504201226
H          -2.87041909122466   -0.49892870350097    3.35830159308632
H          -2.87103163239421    1.02544187675758    2.45382594793286
C          -0.57928873782907   -1.19892352722766    2.26370399249832
H          -0.36047681634860    0.87377114923201    2.21909444976620
H          -1.18317136217645   -2.05291296504840    2.52817988464578
H           0.37248557897787   -1.41178849903146    1.80727535636806
C           0.51910980336570    0.44697071423607   -3.63914357391278
C           1.44084054440733    1.15999790976936   -2.70747451739514
H          -0.35454078171081    0.07819878684945   -3.10191449853472
H           1.02050613901023   -0.38970889545944   -4.11979805809038
H           0.16420993029421    1.13065176641120   -4.41075856800745
C           2.71183286173785    0.85466359544727   -2.52749712289956
H           1.00141851320892    1.98382431001911   -2.15946045692950
H           3.18018626752744    0.04241590897152   -3.06026627865161
H           3.33768271637169    1.40407604691433   -1.84457414754454
