54
-56.674401596020
C           0.44291995410774    1.30214761459993    3.57160378021142
C           0.98050736543069    0.34559898046663    2.56094007587662
H          -0.04823811284450    0.75880454931845    4.37874598247380
H          -0.29714950936056    1.95642801893789    3.11095804148774
H           1.23680689244482    1.91410518090676    3.99273842052975
C           2.24829787062131    0.26411033378032    2.20444168390658
H           0.24662160574083   -0.31347957549315    2.11544517019879
H           2.99917128111993    0.90676413860818    2.63613063679204
H           2.59244978126500   -0.44647889678043    1.47199353863000
C          -1.98434066808981    3.34842715538783   -0.12113619610049
C          -0.64393691521572    2.81307578299636    0.25754129084706
H          -2.75861431343215    2.90200365236318    0.50257459942848
H          -2.21500724078501    3.09619580613853   -1.15627415335341
H          -2.01930767002369    4.42930181586284   -0.00771901091034
C           0.37550951009507    3.55043500989373    0.65503145718104
H          -0.53637866384742    1.73788617676514    0.19129965400088
H           0.30305642148782    4.62348418200812    0.73309420522427
H           1.32208393629256    3.11238893498876    0.92094907832537
C          -2.59638838123145   -0.56939735863223    0.83425756351239
C          -2.25689030379251   -1.86469868357724    1.49139067786924
H          -1.92410768926340   -0.38651014883687   -0.00354729215058
H          -2.52857310162660    0.25583781650792    1.53942221735154
H          -3.60999331893987   -0.60757078155418    0.43449528087650
C          -1.98793560943585   -2.00455492790516    2.77569008268620
H          -2.24104071322700   -2.72452974168621    0.83352374145753
H          -1.99998973295933   -1.16412839098112    3.45099620676512
H          -1.74801578841465   -2.95934721004534    3.21162819445646
C           2.45727942314193    0.99695195246770   -1.48180139942068
C           1.75101693416186    1.85668624076230   -2.47436475359422
H           3.13316983366603    1.60047973193838   -0.87705949476336
H           3.03115442834426    0.21590689833455   -1.97488640791341
H           1.74050302835319    0.53574439974242   -0.80287354303093
C           1.78857229153275    1.67967242413702   -3.78154250067520
H           1.17695068311611    2.67020054466294   -2.04835081456635
H           2.35427895245629    0.87837432002825   -4.22968576750484
H           1.26054602296068    2.32534548174402   -4.46265917045236
C           1.33635190798487   -3.46573957976502    1.61468477201007
C           1.29477625670185   -2.75309872307841    0.30552104632860
H           0.44291655782297   -4.07796984869190    1.73354609617065
H           1.35201768656170   -2.74571961617726    2.43225291247895
H           2.21422472599461   -4.10346563860550    1.68569586517609
C           2.19649744918540   -2.88350851970938   -0.64884239029605
H           0.44664317562742   -2.09522066939484    0.16521766299649
H           3.05013919988383   -3.53276243609610   -0.53754278630109
H           2.12175626940340   -2.35147031893791   -1.58171804100922
C          -1.57406898477887    0.29870662616169   -2.98974333052719
C          -0.80364860177411   -0.94206182831774   -2.68702341946631
H          -1.19557260596895    1.12793654095562   -2.39337798737605
H          -2.63488827218167    0.16321170644203   -2.79095702061731
H          -1.44299015970740    0.56950368401261   -4.03718988285214
C          -1.33863838206637   -2.08686918046494   -2.30665305433243
H           0.26799334086832   -0.84994446418674   -2.80383800985300
H          -2.40442110519393   -2.20083033408615   -2.18654483179738
H          -0.73930556485930   -2.95751301046072   -2.10122332389571
