63
-66.124330816439
C           0.26625968669808    2.82615510961568   -2.19400268282533
C          -0.29901774960283    2.09029101145944   -1.02572537992145
H           0.88827304371165    3.65395394183714   -1.85323121904395
H          -0.53675188100766    3.24709576838950   -2.79919757488994
H           0.86760543798462    2.16492799798885   -2.81194541406654
C          -0.09233260254717    0.81066748732575   -0.77871234457639
H          -0.91766567356705    2.68519821354604   -0.36296376252926
H           0.52143126885620    0.20515855559272   -1.42493859067019
H          -0.51629110185677    0.31378092689586    0.07692197402182
C           3.67101103969813    0.80126957536075   -2.45625331369868
C           2.89468988727484   -0.45429736804069   -2.66770643211433
H           4.68635190391717    0.56151312731412   -2.14049410986302
H           3.21688754729539    1.39441049901724   -1.66305471978767
H           3.71953130928687    1.39160691596401   -3.36857712625041
C           2.39288711741581   -0.84067938750995   -3.82609856346272
H           2.75409693983808   -1.06632203576444   -1.78545650610969
H           2.51907751504608   -0.25439468364523   -4.72294222940709
H           1.84469760203091   -1.76139223052828   -3.93254774477060
C           4.18474629733388   -0.12270605745475    1.34940664058070
C           2.95751977299733    0.68594517809003    1.09455727626546
H           4.38542020306347   -0.77606518946370    0.50073799232657
H           4.04265988942340   -0.75697164977319    2.22435270189006
H           5.04932150362937    0.51579472362112    1.51566052158847
C           2.92123002953993    2.00474026904307    1.07436947448288
H           2.05476671138111    0.11727809064484    0.91546924227677
H           3.80248831817684    2.60163574946949    1.24883662826260
H           2.00924859112728    2.54311221414535    0.87999447985493
C          -0.11004254137960   -3.16093343905067   -1.66453639141550
C           0.56721902858924   -2.74619990758883   -0.40218947138472
H          -0.97890028885456   -3.77918862970624   -1.43896997454500
H           0.56569991933681   -3.72468179493978   -2.30358742761611
H          -0.46636876928364   -2.28648922828271   -2.20960311069537
C           1.82574784160832   -3.00930537714360   -0.10463244247766
H          -0.04870467863864   -2.19228729298661    0.29424266578460
H           2.46415320075328   -3.56296374214658   -0.77523085864364
H           2.27089015352698   -2.68832676070889    0.82175304287292
C          -3.81991098995600    0.04255638278015    0.20221882394918
C          -3.08863484389874   -1.25753674363564    0.22998329154432
H          -4.47811155657346    0.08371693359519   -0.66553281214796
H          -3.11341941970507    0.86782473607822    0.11416356565122
H          -4.41428304549816    0.17894958581224    1.10275498749915
C          -3.15252494076409   -2.13335671014391    1.21538299044868
H          -2.47126593635520   -1.45574213000499   -0.63605952760682
H          -3.76179125607538   -1.96297079822450    2.08908500589475
H          -2.60300957014666   -3.05944346617534    1.19476021773803
C          -0.24086283314369    1.16306391494884    3.15261463230792
C          -0.39635108971577   -0.30081636229833    2.91104620319880
H          -0.40586111038882    1.71666418590063    2.22906091626195
H           0.75477783111849    1.39332197645303    3.52341759175923
H          -0.97944995820829    1.50340969564773    3.87848225774969
C           0.53921695739042   -1.20026839431152    3.14919741175095
H          -1.35681951172944   -0.60839101736964    2.51518673097677
H           1.50190199323278   -0.91950806624490    3.54513379091204
H           0.38611506830727   -2.24974213866300    2.96248082735360
C          -1.11462143179539    0.03269278604161   -4.54445900604999
C          -2.13669775330566   -0.36127341149401   -3.53255434623777
H          -1.28580892079215    1.05863588983600   -4.86929258422761
H          -1.14884175993586   -0.62224766850294   -5.41193618429851
H          -0.11734793926939   -0.01023301166885   -4.10658232705833
C          -2.97659775861089   -1.36989690227825   -3.67131182990127
H          -2.15098716427883    0.24733084168298   -2.63709803805902
H          -2.97542353075279   -1.98933713505439   -4.55391759020543
H          -3.70052905069956   -1.62454288332460   -2.91577035293314
