63
-66.123789628862
C          -2.04474569184456   -2.63619645606315    2.04406565105642
C          -1.86226372955689   -1.22780120185823    1.58238511725615
H          -3.04425726005548   -2.99027719783134    1.78981323183647
H          -1.94535988542819   -2.69541310699910    3.12819711856523
H          -1.31043503511621   -3.29662034950857    1.58773662248300
C          -0.94308814631086   -0.83333076902091    0.72169738364712
H          -2.55632661109783   -0.51100009652152    2.00364668224261
H          -0.24145544726797   -1.52587491746222    0.28597570796874
H          -0.84873970744503    0.19460273381581    0.41733447595299
C          -1.02511504922237    2.90810667354350    2.32469512154337
C          -0.68531868184452    2.97635717475692    0.87437015084716
H          -0.27309638570899    3.43719334299860    2.90953952180989
H          -1.02358687710852    1.87189539526437    2.66107855178515
H          -1.99904714394826    3.35087830806845    2.52034241509614
C          -1.44107930532294    3.54534056523265   -0.04634911491245
H           0.25351559880222    2.51423963916545    0.59565750874623
H          -2.37856542011266    4.01758904264363    0.20193699505629
H          -1.15577477143149    3.57110669787913   -1.08411244499877
C           2.76791188762667    1.58761900130268    2.88659482973671
C           1.70109235870072    0.55037129691295    2.78410949051229
H           3.72617046270622    1.17370179189728    2.57320999737165
H           2.86108128878103    1.95676978907858    3.90532668776462
H           2.54094866007825    2.42479024580237    2.22679581225644
C           0.95818749767347    0.14040793575229    3.79430576670904
H           1.55501698845846    0.13065245302709    1.79768207334574
H           1.07945250930825    0.53905580841588    4.78895547112831
H           0.19413213540754   -0.60815094004122    3.67007357596774
C           0.40622915263771    1.16690496514780   -2.66003351263187
C           1.39694242758370    0.78174460467470   -1.61398020400938
H           0.55801192899318    0.56940909068851   -3.55899892686558
H           0.50034074838214    2.21909407741746   -2.91836238648778
H          -0.60909604022774    0.97827273700114   -2.30989339858584
C           2.25488533220223    1.61143465755193   -1.05082016160532
H           1.38141764336704   -0.25980207012905   -1.32088788634605
H           2.29727128172223    2.65473769528479   -1.32149730382587
H           2.95319079555116    1.28396116148576   -0.29954826865513
C           2.18921488675728   -3.01549740922870    1.96725452332859
C           2.55855742220997   -2.53946149189384    0.60277821534203
H           2.22821757782120   -4.10400909735937    2.00904518700710
H           1.17205755585288   -2.70979590165663    2.20903720383034
H           2.86048085834697   -2.60671508313185    2.71824681155596
C           3.55734017867942   -1.71764856181876    0.34218288445053
H           1.94208880971595   -2.91657321490434   -0.20494855218049
H           4.18770440726568   -1.33123600221076    1.12700139842429
H           3.79077218434228   -1.39660321304752   -0.65878075376943
C          -3.81941192391850    1.04982101825221   -1.15310200898557
C          -3.23301554169295   -0.07903502285765   -1.93081027615487
H          -4.59058724347904    0.67854898844858   -0.47872925821331
H          -4.25595073097184    1.79565342121335   -1.81313849874285
H          -3.05001707413219    1.52439683772202   -0.54324011531298
C          -3.21840769992753   -0.15448665400870   -3.24839268348366
H          -2.79466136190826   -0.86611741244773   -1.33046860218118
H          -3.64664186875051    0.61986148131832   -3.86446632078227
H          -2.78078837617404   -0.98774861062642   -3.77190389513961
C          -1.40279550902553   -3.70228891748344   -1.95514708618134
C          -0.30896295220042   -2.78062094143795   -2.37905809757401
H          -2.21473132404785   -3.67795100307054   -2.68185314589421
H          -1.81408384146543   -3.38321580918363   -0.99788097247330
H          -1.04259619319619   -4.72450814957348   -1.86413005130476
C           0.93146075350012   -3.15470005113939   -2.63166528758904
H          -0.59471157327744   -1.74124282556979   -2.47331739709208
H           1.24228875038504   -4.18440379427482   -2.54893279477575
H           1.69012129518728   -2.45428583975277   -2.93851382307459
