63
-66.124322040657
C           0.40552623592528   -1.92551564704288    2.59134346751496
C          -0.60038318193966   -1.64718389261412    1.52414563442923
H           0.65149881404558   -2.98763881228030    2.61170675667378
H          -0.00092624249387   -1.66608375878039    3.56901758946130
H           1.31520843152837   -1.35488091597763    2.42365606268600
C          -0.41129486718173   -0.81778309826290    0.51497647653662
H          -1.53769673083386   -2.18243884518918    1.62307266662865
H           0.51319505002988   -0.27646796993563    0.39443069133959
H          -1.16580995375409   -0.64813958477045   -0.23343397328304
C           3.59574879463393   -1.60900447119591    0.24422291587646
C           3.26332656282984   -0.18482003701677   -0.04648186330366
H           4.21056450766669   -2.01525927875318   -0.55816952413960
H           2.68536266912920   -2.20482353740634    0.28723259186586
H           4.13374325152163   -1.70436372769761    1.18488351849413
C           3.60987891736465    0.83692377770302    0.71416485659047
H           2.69959053182021   -0.02032393825244   -0.95593595974024
H           4.17652039047677    0.70301015905539    1.62250123906182
H           3.35324726823505    1.85075104859097    0.45792947522642
C           0.63754560057823   -3.50979226642052   -1.73064022154954
C           1.12363845544923   -2.29433568900350   -2.44609159922952
H          -0.26353438882496   -3.89082277824554   -2.21142546811944
H           0.37913635346662   -3.25764942433284   -0.70226310622457
H           1.39096410899258   -4.29412134000922   -1.73143714546177
C           2.27233396528965   -2.21673384290731   -3.09030997624936
H           0.45590430631373   -1.44354072701115   -2.40881595898952
H           2.95235774253458   -3.05224578406147   -3.13921430248720
H           2.58788643718073   -1.32050664472242   -3.59692871800049
C           0.55970971975864    3.09445920454969   -0.65007594352404
C           0.39917750528633    2.03065121766808   -1.68286375031362
H          -0.22212188656894    3.84582806398848   -0.75998614235621
H           1.52776361110932    3.58201503481686   -0.73874260466915
H           0.46505060271313    2.67135868931280    0.34999164083947
C           1.30732831491766    1.72093886585287   -2.58873414775983
H          -0.54191623855014    1.49689118077759   -1.65688838746886
H           2.25524278426428    2.23250980822336   -2.64099526002623
H           1.14455700258389    0.94538930300908   -3.31806585642879
C          -3.24337207150853   -2.17339377629740   -1.73871690663598
C          -2.51790230284697   -1.42026743098034   -2.80300250934811
H          -2.54325580947746   -2.77424406347253   -1.15841312671131
H          -3.96820396305810   -2.85278705911910   -2.18725093764642
H          -3.76381427319551   -1.49228477884920   -1.06956672844554
C          -2.51166128560794   -0.10513888701887   -2.91164970172271
H          -1.97300115178714   -2.02862818346327   -3.51423094169920
H          -3.05019106700459    0.51786168816440   -2.21555289276272
H          -1.97502738493453    0.40229832473440   -3.69573990962896
C           1.17647592841391    1.79158722304630    3.29538686569343
C          -0.27506672111054    1.94987680340398    2.99070218435424
H           1.69561464322354    1.35028566764774    2.44421428709817
H           1.30882075035469    1.11986729790966    4.14340145038246
H           1.63404095626321    2.74953878164522    3.53151092632776
C          -0.92944201598329    3.09529159183530    3.03273385816762
H          -0.79063056305274    1.03780792259760    2.71776188484318
H          -0.43927087453888    4.01846933636954    3.29816107807339
H          -1.98019425843518    3.16020347645453    2.80628527208365
C          -3.47752379023304    3.07552138345095   -0.51561639114182
C          -3.07557049242916    1.86452687687582    0.25794090227348
H          -2.93033446671016    3.12274326616366   -1.45733793722957
H          -3.23362295318826    3.97560158924376    0.04883244360825
H          -4.54450265432981    3.07163210624170   -0.72709500402382
C          -3.90391905676176    0.91712598484923    0.65516076608382
H          -2.02254715139528    1.79551942179220    0.49503574357721
H          -4.95994694457147    0.95575984039703    0.43826957190716
H          -3.56201605262318    0.06445453525564    1.21719665914639
