63
-66.123950265420
C           2.19057052125419    2.86053988170468   -0.17983510198565
C           0.88890871958728    2.29000520050226    0.28026691006155
H           2.71614703564611    3.32599962627445    0.65469337594657
H           2.02170793134520    3.63509903535217   -0.92843967049290
H           2.82462844146797    2.08806990938582   -0.60890251358307
C           0.55452845293219    1.01651857660999    0.18893257083066
H           0.19963208493159    3.00401183590714    0.71469525601319
H           1.22391878576488    0.28442479098014   -0.23275813938167
H          -0.39557455874904    0.65082091119888    0.53745065573482
C          -3.29477193863274    1.67909469259614    1.22567927799758
C          -2.93921976485995    0.27083808043349    1.56497946078475
H          -4.29342564155687    1.71506531691627    0.79015283527325
H          -2.60400447749207    2.07593003728854    0.48223214653815
H          -3.27564212712001    2.31117378599460    2.11044621717025
C          -2.71293734684965   -0.16926021943954    2.78884126951613
H          -2.87632174313586   -0.40732039124529    0.72279804869299
H          -2.76993832999955    0.48405390203769    3.64520946219912
H          -2.47097898474977   -1.19872730692065    2.99235821427449
C          -3.56622712243172    0.82020424320289   -2.62840255316277
C          -2.23250308305795    1.38457971289609   -2.27244862898291
H          -3.48767439327633    0.21409822903985   -3.53077350116472
H          -4.29496242662927    1.60947518801202   -2.79804477747733
H          -3.92353970186063    0.17256332642452   -1.82849240281397
C          -1.96645441949067    2.67431704555787   -2.18886330921801
H          -1.45863055735087    0.65474748558181   -2.07483382436626
H          -2.71857375937838    3.42342937182159   -2.37960282026416
H          -0.98820142393306    3.03767142814881   -1.92382331002647
C          -0.71915314482906   -2.78211815544702    0.70530459506335
C          -1.05116688401715   -2.29429999306280   -0.66395613177986
H           0.12530257816845   -3.47022370310628    0.66306228258548
H          -1.56719507179890   -3.29382324402688    1.15499143532673
H          -0.42903095180485   -1.94529375589926    1.33940790024941
C          -2.20993884699137   -2.48014597026280   -1.26721233023333
H          -0.26057345971838   -1.75323257017109   -1.16718527604038
H          -3.01836950631942   -3.01445452060600   -0.79319780472085
H          -2.39965145596880   -2.11059884752113   -2.26036258858168
C           1.23922668584136    1.07968916299840   -3.61832565752500
C           1.08242314510048   -0.39130748640236   -3.43103891264863
H           2.23312116855033    1.30560527453602   -4.00465198834247
H           1.13114310848327    1.58840217821841   -2.66162338578362
H           0.49336083907037    1.46755133359272   -4.30759115900211
C           0.15781159976181   -1.12701673618475   -4.01838450758000
H           1.79520284798902   -0.84884417832664   -2.75560817004357
H          -0.56215224612637   -0.69251145605471   -4.69328548981365
H           0.07688200532265   -2.18811405474054   -3.85320010857010
C           1.79113299157304    0.92569917349793    3.70016888620901
C           0.96664253117909   -0.30907716540328    3.56225597784738
H           1.37826566258723    1.56477089483687    4.48061020237041
H           1.76927043980673    1.48931955173038    2.76785640183674
H           2.82112735392892    0.68424003184842    3.95168304126784
C           1.41568658807896   -1.53485192250151    3.75578533603250
H          -0.06592011595202   -0.14063015717973    3.28228130164802
H           2.43957045939435   -1.72523379664247    4.03548822042676
H           0.78480424311755   -2.40151806885610    3.65052430873805
C           4.12281613242443   -0.65124662196141    0.86844767466139
C           3.07493680996833   -1.61077695241940    0.41426741210908
H           4.63255983456301   -1.04728469226723    1.74654810911536
H           3.66484189380292    0.29420385714947    1.15574982237158
H           4.85863786965880   -0.47170579394537    0.08768366585929
C           3.06779818033678   -2.21176091433042   -0.76096649190784
H           2.28742338989530   -1.79788694706565    1.13300224540853
H           3.84611841466175   -2.04252055139252   -1.48884414751443
H           2.29308199692402   -2.90317226332847   -1.04742611317444
