63
-66.124543897945
C          -2.67420979887765    0.67781472705548   -2.19726984196036
C          -2.37322979635112    0.29334315211944   -0.78666870028533
H          -3.30385536465748    1.56744301015038   -2.22055155174598
H          -3.22200273578699   -0.12172770496637   -2.69699796164681
H          -1.75978311124145    0.87726344859666   -2.75011988784598
C          -1.15887448763171    0.16697703404250   -0.28568583751041
H          -3.23907048061376    0.11149770309105   -0.16121581253074
H          -0.27799097306763    0.34347676430906   -0.88160273972363
H          -0.99588505220183   -0.11621998860397    0.73953233931918
C           0.00600264313265    3.54606337698748   -1.81423232732365
C           1.20173239219099    2.65598482968694   -1.85620740128867
H           0.20358756962395    4.40555927769666   -1.17446632139039
H          -0.84228000257666    3.01222275633800   -1.38759641324280
H          -0.25811710515133    3.89598430309126   -2.80963467202223
C           1.83809374676331    2.30541073810969   -2.95844895607977
H           1.54070057047145    2.28975561201518   -0.89523112695462
H           1.52791670138219    2.65767501665004   -3.92979262287516
H           2.70143320951157    1.66185917275693   -2.93990916827751
C          -2.04511207473108    3.02973581432817    1.82611256044194
C          -0.55542868338440    3.06391524800994    1.77505836420246
H          -2.38514330801048    2.04599523770802    2.14845057350756
H          -2.45630974697999    3.20661559124336    0.83251431801418
H          -2.43218075870011    3.78338491841700    2.50774957110867
C           0.20030984005576    3.90889382932043    2.45054390508875
H          -0.10368192459945    2.32731417978380    1.12372658054816
H          -0.22492312982228    4.65212116937343    3.10587779271662
H           1.27499612589794    3.90009632504805    2.37879840724908
C           2.96350244407331   -0.78536882192938   -0.56004809144814
C           2.38777044611727   -0.13029384261874    0.64972678755309
H           3.33987461289207   -1.77615955588372   -0.30547522591830
H           3.77790629619626   -0.19544951607192   -0.97376669926169
H           2.19685878574222   -0.91635414379773   -1.32402959171451
C           2.80549128477222    1.01546521435874    1.15418210403050
H           1.57141902344664   -0.66359953349870    1.11841441047966
H           3.61830214162247    1.56814090223940    0.70995984575355
H           2.35845057166920    1.44944712939489    2.03254129561288
C          -1.58696967775304   -3.48227243147536    0.21577648198156
C          -0.21503906451118   -3.14153796489787    0.69230040369826
H          -1.52922632693112   -4.14984849975380   -0.64381119364368
H          -2.10487602271855   -2.57838604688154   -0.10606500481293
H          -2.16687886133972   -3.96683108005265    0.99815444791584
C           0.23743535645463   -3.37694557359605    1.90974454056618
H           0.42047311009763   -2.66769661239393   -0.04425255611605
H          -0.37449293163495   -3.84728633289339    2.66311810900912
H           1.24015115423976   -3.11901440327134    2.20830678278183
C          -0.41068195322159   -0.11789142209227    3.78044982383890
C          -1.90051767079730   -0.07036541625820    3.82582908220698
H          -0.00830936800289   -0.25830741342924    4.78328259849409
H          -0.01891062447598    0.82509607930490    3.39796717768109
H          -0.06786301050609   -0.93257059606066    3.14651029449006
C          -2.69558903118108   -0.87481281193049    3.14550667506996
H          -2.31830432741193    0.69219164147927    4.47188658207034
H          -2.30207022291289   -1.64246207227673    2.49988064249091
H          -3.76880878905172   -0.80401203866240    3.20554675194462
C           0.46146645913305   -0.87239100448838   -4.08776386004877
C           0.24738295377609   -1.97829822026460   -3.10972859204106
H          -0.43060737278910   -0.73454681406041   -4.69854170353623
H           1.30485412142315   -1.08570053646500   -4.74032609639666
H           0.65156648625178    0.06621190487550   -3.56485944949996
C           0.99540594328923   -3.06316561736303   -3.03483505998068
H          -0.58642037775807   -1.84064935796160   -2.43303593107253
H           1.83181661395132   -3.22028854744739   -3.69695625807725
H           0.81008791266515   -3.84132033820547   -2.31389021348432
