72
-75.571226106075
C           0.36965418558294    0.63334205340027    0.27940554656511
C           0.55320203175953    1.94962303058664    0.95307169217887
H          -0.56762803037543    0.62620378078210   -0.27784997275089
H           0.31093119720837   -0.16288845688720    1.01990786714955
H           1.19323602876745    0.42948453642925   -0.40040881958735
C           1.53359508517996    2.79451622727026    0.69533783835950
H          -0.19426218779865    2.19423821873954    1.69760237663001
H           2.29107701575620    2.57362326625667   -0.03974948370913
H           1.62630549873355    3.73923688645599    1.20403576434293
C           4.49661339062981   -1.44659609855700   -1.45706506594328
C           4.10466304670490   -0.59525344073932   -0.29655805615677
H           4.87248992937228   -2.40748508694853   -1.10561220383687
H           5.26934544069088   -0.96458503780302   -2.05106301984970
H           3.63203491073671   -1.64228542252324   -2.09069694448816
C           4.62852510257299    0.58414289980595   -0.02088305301447
H           3.33506006246473   -1.00805465217867    0.34275993398798
H           5.39711416996345    1.02123152125843   -0.63852151980928
H           4.31899210891207    1.16261892310290    0.83306243084295
C          -2.33454325283790   -1.62335563570557   -1.72080757563742
C          -2.68910948497864   -0.17469882073749   -1.75256339806749
H          -1.28202126549765   -1.75102623556494   -1.47027321646174
H          -2.49681610050036   -2.06875639122138   -2.70217590103277
H          -2.93521471112471   -2.15684567551214   -0.98801672699368
C          -3.59457768524245    0.39188800976571   -0.97747443171453
H          -2.14848500029024    0.42229957739934   -2.47721782894643
H          -4.15183729230838   -0.17369817977094   -0.24815537392798
H          -3.81786774040871    1.44347182147657   -1.03949626441997
C           1.19236360616844   -3.21714039222891   -0.56552421100594
C           0.34343288481225   -3.27849841836021    0.65953548412616
H           2.20103524941013   -3.56130273647931   -0.33894606233482
H           1.26807911060995   -2.19079688447730   -0.92452000648114
H           0.78075763267259   -3.83757802960726   -1.35819321735541
C          -0.77003388348686   -3.97913775004835    0.76084676424052
H           0.70405591748021   -2.69820261057377    1.50045509820480
H          -1.14605666944909   -4.56498339759564   -0.06257613752796
H          -1.35322637787894   -4.00237692242831    1.66519241421427
C           2.43306075815821    0.88666726030830   -3.43202066065417
C           1.32275769882461   -0.10637243987311   -3.35293670020045
H           2.06611648539974    1.82896946439244   -3.83773286554552
H           3.24188215065012    0.52157095274565   -4.06034667359864
H           2.82846378970632    1.08794412483581   -2.43594002187566
C           1.34282904543877   -1.30162100744771   -3.91218715117472
H           0.45781701113439    0.21349937982231   -2.78688554066974
H           2.18791740664169   -1.64575454580957   -4.48726469798211
H           0.51648608464846   -1.98666700052555   -3.82687386213184
C           1.14835659096140    0.19735011423265    4.27674931614335
C           2.08719369790703   -0.45767110670473    3.32138014370839
H           1.61837182607507    1.07511463658987    4.71881312247360
H           0.85625973028706   -0.48566140930852    5.07085016761786
H           0.25421769197084    0.53171904584732    3.75131899054789
C           2.45365203457621   -1.72443311725656    3.37874631355172
H           2.46771167108978    0.18593628792349    2.53878264028006
H           2.09024481940616   -2.38636971835011    4.14907554487797
H           3.14074044031524   -2.15611850862923    2.67036807152950
C          -1.96673033244974   -1.69387966633019    3.68376239763265
C          -2.19406491802140   -0.80727749881631    2.50585113595500
H          -2.67391394828232   -2.52338851808879    3.66995217202076
H          -2.08801853214987   -1.14713956592293    4.61593318291682
H          -0.96261907489707   -2.11514355586608    3.64674637530561
C          -2.52141280817389    0.46887746186581    2.58042777167647
H          -2.07080863829668   -1.28039671089720    1.54021447013736
H          -2.65259362953145    0.96736675578814    3.52815963365914
H          -2.67984885417266    1.06634801609142    1.69887740406452
C          -1.58739534575839    3.85379704618639   -1.37107370998976
C          -0.78691522677516    3.11031811523692   -2.38539920224567
H          -1.64031416899250    3.27968955141477   -0.44684010150952
H          -2.59480467697454    4.04843888522570   -1.73126711404971
H          -1.10547449920165    4.80276845295390   -1.13725925071136
C          -1.23493160808781    2.74356227984547   -3.57144116576449
H           0.22433816799739    2.87367449989331   -2.08137324762123
H          -2.24011906083702    2.96875008539282   -3.89060827961906
H          -0.62452817186271    2.20484530227889   -4.27700955653913
