72
-75.571524100611
C          -0.27366368057597   -0.65850612929878   -0.01018125501196
C           0.03576813080839   -2.02352136847870   -0.52213856136328
H           0.16765719852454    0.09186618468880   -0.66597350556455
H           0.16159122066755   -0.52414467303216    0.97926285885114
H          -1.34723625281194   -0.49866905543458    0.04937138589433
C          -0.86862688492377   -2.90177525515943   -0.91373403790257
H           1.08976205208671   -2.26787091773621   -0.56350224661710
H          -1.92395793131475   -2.68217720193676   -0.87854491387086
H          -0.59901168100160   -3.87771743473537   -1.28109654082319
C          -4.66105844704371    0.01296849464047    1.87647395064644
C          -3.56179670717136   -0.99143145812218    1.96884159380599
H          -4.87765568217374    0.42376007565615    2.86239940406109
H          -5.56689628145357   -0.43661166664003    1.47683187585771
H          -4.36373476371999    0.83972847945085    1.23165107051346
C          -3.66325105210399   -2.24951818256820    1.58353219139151
H          -2.63176078400254   -0.62625780834854    2.38534211269979
H          -4.57772043001727   -2.64160297575594    1.16693166200035
H          -2.84341652826153   -2.94196226394085    1.66871278424478
C           0.62806683348344    3.35844991966782   -0.93617213424677
C           0.98672826971744    2.58787068356646   -2.16166969078946
H           0.23250700411523    2.69299529301784   -0.16958027257555
H          -0.14641591616892    4.08909643083454   -1.16830798054167
H           1.49442195361525    3.87815407136155   -0.53418738726040
C           2.19987666127307    2.52565169971691   -2.67783954844141
H           0.17131335769375    2.05477537050100   -2.63522807108644
H           3.03289154832417    3.04786465163078   -2.23458040734850
H           2.41305211757886    1.95638852019034   -3.56661197141871
C          -1.71528052411221    2.51351538925023    2.09399779976201
C          -0.39697075111624    2.11593838368428    2.66730199394399
H          -2.50788796739500    2.32911943508137    2.81862775412385
H          -1.93832473905524    1.92239330037511    1.20581537704017
H          -1.72284572954714    3.56768160701421    1.82727590033754
C           0.62394544557289    2.93537709820374    2.83413346839068
H          -0.31025725374943    1.07596592145631    2.95776381588174
H           0.56698807145636    3.97508562024183    2.55481444585115
H           1.55799865351958    2.60879007599014    3.25870804679822
C          -3.99523608662635    0.02565771952090   -1.78425114014433
C          -3.18625930765719    1.26010901546683   -1.56887348228812
H          -3.70380407931102   -0.74311226387806   -1.06808947609672
H          -3.81740759659220   -0.37051012525966   -2.78347325339543
H          -5.05717003369820    0.22714596273497   -1.66575759404212
C          -3.68075233583624    2.42609280143725   -1.19777120795575
H          -2.12314151937034    1.14975790460883   -1.73764214576141
H          -4.73642624245129    2.56708527235633   -1.02790888218626
H          -3.05730709804149    3.29183519430832   -1.05224988314648
C           3.25375061568349    0.75916485883093    0.96623725689532
C           3.26763921362588   -0.03106385172546   -0.29797795294229
H           3.87970878614196    1.64463647547901    0.85737734460714
H           3.62115384403075    0.16923905312318    1.80270764626280
H           2.24263561244920    1.09963799550905    1.18692303073429
C           3.67528137036907   -1.28239422726840   -0.39718095807555
H           2.91218826457047    0.50024799338613   -1.17245042634013
H           4.03762683996407   -1.83124032277883    0.45784664424198
H           3.67585311802098   -1.81331552057262   -1.33473814712760
C           0.16001627366123   -3.04220803624138    2.96587289385943
C           1.14509572983558   -1.92922155883416    3.08629966149594
H           0.65439472092111   -3.99769872108087    3.14186486279854
H          -0.25260322625062   -3.06752819136492    1.95747356311787
H          -0.64972032877729   -2.92865064001872    3.68294196179880
C           1.08796800351001   -0.97059007187439    3.99197414714500
H           1.94897125576937   -1.94582504666058    2.36135301929700
H           0.30005938327552   -0.93298669483128    4.72753822366097
H           1.82493087570900   -0.18718546681321    4.04587088471840
C           0.94544636309670   -1.03000698005185   -3.91960348530854
C          -0.45260103505809   -0.51821831209420   -3.83870198900513
H           0.94030487766184   -2.09994626163949   -4.12496273769793
H           1.45140498302997   -0.88270121317838   -2.96593374115007
H           1.50512804619296   -0.52163016243593   -4.70107378671003
C          -0.93829759105068    0.45686355458082   -4.58401229120670
H          -1.07298587606938   -1.00704647645005   -3.09859273529022
H          -0.33539230628621    0.95697351622535   -5.32511920047812
H          -1.95415254694556    0.80277114828304   -4.48979596676983
