81
-85.019250134247
C          -0.39800013269681   -0.16583288885903    0.47410460857861
C          -1.08973500155764    1.11753201510079    0.16091372519435
H           0.64717631474863    0.01797858868778    0.72250945174621
H          -0.41796306265461   -0.82649648437158   -0.39332073645760
H          -0.87504177684994   -0.66911530448410    1.31151610723238
C          -2.16939748982749    1.55313763065683    0.78279876875953
H          -0.65264472844471    1.70756678045230   -0.63453302074091
H          -2.62911878174378    0.99244669835372    1.58081869876074
H          -2.63230411252916    2.49104347887917    0.52468390014971
C          -3.79572603614044    0.10526935211304   -2.28686013204880
C          -2.58818565057048   -0.59802967074108   -2.80714276302182
H          -4.54556965510972   -0.62034991101303   -1.97227561870496
H          -4.22865622708850    0.75389400641325   -3.04467322657300
H          -3.52890866775525    0.70253964478799   -1.41466140941861
C          -2.10098323141097   -0.45797965562094   -4.02562263028027
H          -2.10376207643034   -1.26214694330531   -2.10312622821571
H          -2.56429309471770    0.19269872816801   -4.75021457912714
H          -1.22164377857781   -0.98572318113753   -4.35441798579906
C           1.81217345284983   -2.60343383477777    2.88815143611607
C           2.29348059158581   -1.21615201478274    2.62520791779384
H           0.77384338814113   -2.70766459315334    2.57159253479173
H           1.85444604540958   -2.81866052106562    3.95569188139429
H           2.41659835359442   -3.33501843998291    2.35737929586883
C           3.28101689131557   -0.90571975483726    1.80627366236269
H           1.76636411487810   -0.43813817383530    3.16355378501397
H           3.82393948501222   -1.66258888401212    1.26333628606509
H           3.59600056148457    0.11124581770246    1.64227964949478
C           3.27227832663758   -0.18503039083107   -1.84850009885779
C           2.63177139868292    0.41258997262679   -3.05604380955302
H           3.82829901203205   -1.08117217493546   -2.12421545857536
H           2.52960911617004   -0.44812344411158   -1.09980166616152
H           3.97953687805591    0.51876034957698   -1.40985717463168
C           1.33480705599364    0.60735427244915   -3.20268318592760
H           3.31508688077192    0.69219819344828   -3.84866697349153
H           0.62673680306168    0.34127702452996   -2.43493600635945
H           0.91934025088086    1.03814692143820   -4.09784264474758
C           1.69831135681276    2.95543810857864    1.58738750564712
C           2.32525104361047    2.83913383816289    0.23892452252072
H           1.88740335917837    2.05201308961166    2.16772245132433
H           0.61826426807723    3.06181814049498    1.48702342987717
H           2.09389769122419    3.80937468083148    2.13228770792107
C           3.28331926870453    3.62420447677567   -0.21529992920888
H           1.93804743531277    2.04478126834663   -0.38424360342103
H           3.68944865258203    4.42798325838484    0.37782687596531
H           3.70111378290840    3.50263615001282   -1.20040509233313
C          -1.02269843152382    0.91448191313841    4.28539494373313
C          -1.55715437317203   -0.45273715499331    4.01976620724785
H          -0.37152853734280    0.90362880624985    5.15910337232308
H          -1.82946001457167    1.62321009593803    4.45543918152383
H          -0.43414263311252    1.25722397003214    3.43415500844717
C          -2.83740017010213   -0.75242021580395    3.90904396182579
H          -0.81165200627788   -1.22983638393407    3.90909451914988
H          -3.60636491878807   -0.00428069581961    4.01905771909434
H          -3.17089998914424   -1.75490485613781    3.70367726371215
C          -1.49166347256403    3.27033033829624   -3.18418459570726
C          -0.35436377702267    3.72316657487748   -2.33135842872937
H          -1.30445543847016    3.53131214141974   -4.22590647127758
H          -2.42425145800757    3.73212990112069   -2.86876316691838
H          -1.59769566350447    2.18709625278797   -3.13027196838710
C          -0.45647771647020    4.58593652386233   -1.33803491989378
H           0.60856849517857    3.29090932735466   -2.57430425939335
H          -1.40059265036060    5.03354170686885   -1.07131178843360
H           0.39607502029177    4.87859211987384   -0.74944969253913
C          -3.25314965350932   -2.78475310456371    0.56683679033208
C          -2.04601555802813   -3.41876821934594    1.17033980431279
H          -3.14864521436315   -1.70009530656067    0.57057369913173
H          -4.15380050214100   -3.05510592901452    1.11296196973138
H          -3.35988863755216   -3.10107678126466   -0.47055946277335
C          -2.05648460431392   -4.18817981120905    2.24240518363474
H          -1.11593185780188   -3.21073546475579    0.65803823178480
H          -2.96980490757479   -4.41853825192831    2.76730937137159
H          -1.15862843847413   -4.62817510320887    2.64334091991725
C           1.49575711531387   -3.50653944960940   -0.85822644825088
C           0.56954985271565   -3.13351251680555   -1.96740288469279
H           2.48399810893686   -3.73171743752098   -1.25889707985579
H           1.12908602279122   -4.37731051264971   -0.31918419814515
H           1.60654568846686   -2.67745856614329   -0.15965674235778
C          -0.54796708260803   -3.77439964770756   -2.25461641978119
H           0.87425760313985   -2.27654206234964   -2.55528348264116
H          -0.87128116555073   -4.63181290575861   -1.68577204371054
H          -1.18718131190305   -3.47525161272698   -3.06803858700886
