6
-8.226118435022
C           0.06134538206843    0.72939527977325   -0.01779481799407
H          -0.08482710283892    1.15373575846293    0.98152228516119
H           1.05895740441238    0.98757930944224   -0.36814433632652
H          -0.67781659406637    1.16263415177117   -0.70044376032022
O          -0.00568361336353   -0.67524567176205   -0.00159448392428
H          -0.87793119198194   -0.94464882872145    0.30449808471172
