60
-82.378481230983
C           2.09356000674582    1.50181629215633    0.52580301998029
H           1.33858063274789    0.76138366365042    0.80327817350728
H           3.05590595052775    1.21260180393129    0.94783385196538
H           1.79971216150154    2.46838479212488    0.94036019418867
O           2.25645591856394    1.56879248320500   -0.87411794662824
H           1.40063445369046    1.85520478232277   -1.26402378445581
C          -3.36142212251693   -2.35225190858184    0.28091878956964
H          -3.60597151785359   -2.34513335363741    1.34272504511050
H          -4.22481380274472   -1.99470258626456   -0.28670002186823
H          -3.13339779378086   -3.37632061296298   -0.02837107466084
O          -2.25223005521709   -1.50474929923504    0.10096642482619
H          -2.00970491388469   -1.51766429633796   -0.85611739847830
C          -2.78796335595812    1.78034217963669    0.56315995772885
H          -3.38310322182597    2.00358395059939    1.45266652799238
H          -3.41528448079366    1.90546961031006   -0.31891488438436
H          -2.43921012433914    0.74577381194638    0.61185468350254
O          -1.71011273490527    2.68467786350769    0.43665770986061
H          -1.15070724101600    2.60891766691144    1.23943246590741
C           4.14352843359332   -1.18464486631953   -1.53660211664629
H           4.94983216089595   -0.45265406881846   -1.63417752083424
H           3.98507232896280   -1.40059578584313   -0.47478464084471
H           4.43712889898027   -2.10397260959340   -2.04272053947610
O           2.96358789857277   -0.72525120623533   -2.14809938529681
H           2.70758456770309    0.12590180411031   -1.72397422182837
C           1.31466161674570   -2.94608692398906   -4.12748331896749
H           1.34404048172219   -2.09933936912266   -4.82004142428865
H           2.27467152125468   -3.46853408197504   -4.16930338294304
H           0.52546395541543   -3.63245471501532   -4.43350090711575
O           1.02010818764928   -2.52723373936907   -2.81623730494494
H           1.70894030153873   -1.88561483285749   -2.53975553556167
C           0.95742358853834   -2.35188087045864    0.50841408666157
H           1.11386518736596   -1.43433819893748   -0.06504768744014
H           1.88392098155987   -2.62523000468868    1.01314060139254
H           0.68083544540425   -3.15004692164885   -0.18361907967420
O          -0.02295780890214   -2.17206747139749    1.50705194719027
H          -0.87079603247801   -1.95104964541964    1.06116579620757
C          -0.25228442047578    3.49123860087414   -2.51456996074577
H           0.09411502988184    4.34377803481668   -1.92333661595989
H           0.40412560613852    3.36179891791445   -3.37460362082738
H          -1.26718449377085    3.69375481026489   -2.86733156172837
O          -0.20515957298120    2.29867704549257   -1.76855886823589
H          -0.78280783582634    2.41106299095451   -0.97566644958267
C           1.67262785099451   -0.48409193606692    3.92745123812922
H           1.85828146309052    0.29214132600020    4.66941782312140
H           1.67999765749388   -1.45838887418592    4.42357575275482
H           2.47334271165262   -0.45848191106719    3.18086044133880
O           0.42018348578009   -0.21984474602491    3.34537863261594
H           0.22332068586494   -0.93607262377993    2.69878472449495
C          -1.60649219897356   -0.41053084030028   -3.17931179198044
H          -0.93100209369975    0.31945664493497   -2.72635858679340
H          -1.35152535295296   -0.53254069678625   -4.23541553401332
H          -2.63022442667158   -0.04473042976019   -3.10575509585070
O          -1.55954798625266   -1.64937597728492   -2.50207472066550
H          -0.65074064556296   -2.01019252778489   -2.58580466762982
C          -0.87353027268884    2.88095624243108    3.87851032753503
H          -0.18475675756071    2.91278882931057    4.72756825767788
H          -1.18896467390832    3.89676320225147    3.64140147079525
H          -1.74966460756082    2.28776588599710    4.15777669634093
O          -0.24432937818567    2.35962080633838    2.73226649116323
H           0.01874168342586    1.43401738121975    2.92378323584094
