60
-82.379322066230
C           0.32173775931165   -1.29436382476527    1.11037517512116
H           0.02765932769448   -0.31217227822247    0.73215682805604
H          -0.34836963512791   -1.58316440578361    1.91887690495127
H           1.34230350767847   -1.23866490507499    1.49483311607869
O           0.20842912314486   -2.28225603355855    0.10547880877855
H           0.79011324030253   -2.01209935202389   -0.63824708596936
C          -1.57020094766526    3.36851457935630   -0.99331023448831
H          -1.46876666310452    3.90735982829651   -0.05155288857140
H          -0.91998831818878    3.83052306434335   -1.74115916668741
H          -2.60677562128776    3.43622186662352   -1.33665518322362
O          -1.19790481206456    2.03176019404898   -0.75519956560538
H          -1.28431064324903    1.53890981245447   -1.60687034986437
C           2.17140140599072    2.10106791215583   -0.81801192339044
H           2.61695773735952    2.97774082982920   -0.33994634646890
H           2.28580897502679    2.19265246465758   -1.89764650258287
H           1.10848057132101    2.05575325571560   -0.56949017326563
O           2.83895820905119    0.91896073281040   -0.42872159804124
H           2.75307230894344    0.83204743531330    0.54393742197169
C          -3.16066677714978    0.22949521014078    1.49565726481229
H          -2.81049613506479   -0.61925614166868    0.90290895741874
H          -3.44639954557317   -0.11943837071272    2.48776653806936
H          -4.04098812667917    0.66523572989769    1.01220576515914
O          -2.15171336328552    1.19855950310649    1.67160444048837
H          -1.84084039219354    1.49168893077637    0.78964705873511
C           3.36515452869391    1.78471055449890    2.95713879085477
H           3.40063762889405    1.59298750958575    4.03341302953870
H           4.36250375383460    1.64523717315163    2.54066481172566
H           3.04852240831125    2.81945372521383    2.79411906382243
O           2.50805116867935    0.87724556747985    2.30609374718821
H           1.60027703852531    1.01240482365131    2.65355978534609
C          -2.68739724196583   -3.98127767599676   -0.40344237484026
H          -2.15746714097541   -4.49599105619908   -1.21052325806247
H          -2.40355413353914   -4.43222203713732    0.55087018315338
H          -3.76105571250194   -4.10215847599961   -0.54689533017298
O          -2.41414890093771   -2.60046626024757   -0.41258472497111
H          -1.44795034283146   -2.48123352496310   -0.24741312133046
C           3.02302641361236   -2.03950113580085   -2.11064887326519
H           3.60260617113601   -2.33011316846250   -1.22941030917692
H           2.64451780487114   -2.93589747120950   -2.60118641853009
H           3.67672391427004   -1.50287321145928   -2.80338938547811
O           1.90990403458616   -1.25545324820266   -1.75518379445907
H           2.24008897868127   -0.44141795696181   -1.30676257313676
C          -4.49279424844437   -0.90782177194265   -2.49015504881201
H          -4.57648189057148   -0.26029433298148   -1.61195549947812
H          -4.79707175261516   -0.35020444492417   -3.37530963895174
H          -5.16163600103485   -1.76392115331539   -2.36266459277065
O          -3.16496803961657   -1.32544860720323   -2.69437745520111
H          -2.87131783366008   -1.81220579346214   -1.89143933327688
C          -0.31720182524407    0.34177542592420   -3.73397868197832
H           0.22669905111214   -0.34994812719116   -3.08575952137453
H          -0.52904902743118   -0.14785388831773   -4.68749104185596
H           0.30039128023021    1.22058463959199   -3.91824827660462
O          -1.50816151145529    0.79320864028526   -3.12442471961288
H          -2.10838124788957    0.02260844823767   -3.01418813150214
C          -0.32056996780341    0.60018460818948    4.51281035629876
H          -0.50968692475702   -0.45377929630856    4.28547629200592
H           0.52658993827431    0.66765824484199    5.19484268843041
H          -1.20278821742740    1.02225331750183    5.00165591617468
O           0.01387010669385    1.32370267314955    3.35330635167219
H          -0.75399503542795    1.29869969714773    2.74563575630081
