60
-82.379253887928
C           3.05178865116208    0.78594674095060   -1.01377870810810
H           2.37742069604663    0.03817859027424   -1.43885392663658
H           3.20500695801962    1.58337664763875   -1.74100784468347
H           4.01668574512373    0.31963787270851   -0.79603174950737
O           2.50566757270791    1.37720913599401    0.14427021035845
H           2.37894831454331    0.67486652612284    0.82084690279690
C          -2.71823467186986    0.30540015616964    3.59595130501963
H          -2.91783387327942   -0.74342535520777    3.81592924928568
H          -2.22795834788119    0.76204099603466    4.45978880868868
H          -3.66745565173845    0.81969296747487    3.41506456387941
O          -1.88722432865310    0.34632907504512    2.46028666458904
H          -1.69529648558464    1.29288140022853    2.24945372753243
C           1.55946138131765   -0.05458700718056    3.16544658171873
H           1.68069567126395   -0.74567010522986    4.00429407760428
H           2.07586165318569    0.87703124618582    3.39455674969559
H           0.49563803974241    0.14835349915453    3.01901826768482
O           2.14153291367955   -0.58148553834158    1.99367625918319
H           1.65080674847318   -1.40359331584942    1.76589996512513
C          -0.59531819267886   -2.44593312050909    0.93070720728397
H          -1.19300042997795   -3.33826546851964    0.71997998529479
H          -1.05865724493091   -1.88134279765219    1.73848278345002
H          -0.55848653627324   -1.82244173768423    0.03324225161638
O           0.69875373596154   -2.80163895100322    1.36301592730524
H           1.16763355979398   -3.21702683173231    0.60726933832672
C           0.98454656638588    4.30734723792555   -0.26982376372382
H           0.17632222247528    5.02383441463748   -0.41618006987656
H           1.52086495337535    4.55400870206187    0.65087717309087
H           1.67694462523439    4.37800069357719   -1.11282142914959
O           0.40611397497816    3.02573340923709   -0.19524618074439
H           1.13733180189800    2.37386212840384   -0.07240335827107
C          -1.25457694231516    1.19118639548888   -2.49963232528891
H          -0.79645693512074    1.80064717108626   -1.71689068954528
H          -0.62802457245592    1.22190144593308   -3.39061656070373
H          -2.23823766610243    1.59932869466974   -2.74625987904786
O          -1.35506697557418   -0.16145706400311   -2.10381656172948
H          -1.96163416700896   -0.20213846014119   -1.33633291687005
C          -4.04485188569277   -1.12893652002319    0.14599908221653
H          -4.80291870081629   -0.87899097861544    0.89431614570441
H          -4.52681618623590   -1.22120507751214   -0.82664948874327
H          -3.58531182140492   -2.08599626827043    0.40946256947284
O          -3.08109678800709   -0.10978817198744    0.03865979343137
H          -2.62423989157265   -0.01484373054202    0.90409209662886
C           0.91995498405591   -1.90650554417629   -3.85874188940747
H           0.08666581610497   -2.59973740130089   -4.00443203768708
H           0.79684231893510   -1.05638233045035   -4.53524837992654
H           1.85341000767790   -2.41533612132540   -4.09762032746843
O           1.00188263641297   -1.48221898571407   -2.51833951532744
H           0.16531685337847   -1.01757896008178   -2.29847517207656
C          -2.73173677029490    3.24879307189252    0.97687278665367
H          -2.97389111790568    2.49672899029009    0.22043555008214
H          -3.54271230199287    3.30296742580516    1.70318546430601
H          -2.62872630581721    4.22303003853193    0.49291505361000
O          -1.55895145534181    2.90453653406690    1.68244362895512
H          -0.80923155408126    2.92887475045215    1.04574723811639
C           3.37751770352394   -3.22813191161529   -0.71398889592457
H           3.52353091115302   -2.28588995697396   -0.17776286778885
H           3.77350199239992   -4.04479384810586   -0.11160065238168
H           3.92156234413586   -3.18924549660048   -1.66167057234817
O           2.00886517045623   -3.49316084869504   -0.92138882648129
H           1.64460809305518   -2.79362555001022   -1.50320935567602
