60
-82.378470483087
C           2.85002240197629   -3.59518343881936   -1.97730541443122
H           2.22259065647867   -2.95879056195763   -2.60906912882115
H           3.89670500498878   -3.42656443221757   -2.23038628512953
H           2.60310896363228   -4.64209583458866   -2.17335738106509
O           2.69530976634410   -3.28272676779260   -0.61444206404228
H           1.76182168491814   -3.44203795017342   -0.35868117773894
C           0.03746189663171   -3.19078512164950    1.53012878703483
H          -0.91261496695764   -3.48202566560914    1.98654224734037
H           0.84790823197174   -3.71261879994844    2.03755917607209
H           0.17953624525176   -2.11309234530006    1.64690871999642
O           0.08666012171844   -3.56876824873238    0.17184732482846
H          -0.67254901909565   -3.15784704812132   -0.28685006924614
C          -2.08507604086704    0.20076658432769    1.90909681058240
H          -1.95857902210326   -0.72578782041737    2.47540999809774
H          -3.06579109701200    0.62001408059219    2.13239866585073
H          -2.02582147351609   -0.01564417851773    0.83914797219236
O          -1.12852630453158    1.16556807666851    2.29075341143060
H          -0.24081719312025    0.77886529722129    2.18725024836879
C           0.81264354480559   -0.37997607474681   -1.44455555546699
H           0.74959907536864   -0.34490074015577   -0.35430012720689
H           0.36191037764012   -1.30652262112250   -1.79861078116174
H           1.86420150329665   -0.35694601908774   -1.74070878188645
O           0.10227053875340    0.68540677612795   -2.03817524656018
H           0.44918059931248    1.53184915249811   -1.67186687663858
C          -3.24578647011614    0.47668105920124   -2.70513940050039
H          -2.91143315015704   -0.17726463154069   -3.51573108589510
H          -4.28488840000940    0.24977632338667   -2.46652496368620
H          -3.17559838849920    1.51601852275422   -3.03627954927901
O          -2.49057312332446    0.26610920966881   -1.53476608900504
H          -1.54502217024605    0.47725131191854   -1.73995860800992
C           4.50558218114305   -0.40215592779610    0.09423863973862
H           4.16420272055957   -0.09573482202950   -0.89991209699556
H           4.75821406919572    0.48747809627449    0.67081491912037
H           5.40119925100594   -1.02025559247681   -0.01496290350713
O           3.49836394706614   -1.08519374316710    0.79863307602255
H           3.25620454424243   -1.89456108403844    0.30056294180574
C           2.00885687355419    2.81116719730686    0.13729861039400
H           1.79535924886570    2.05269346885593    0.89577865671296
H           2.89176029699805    2.51567737464592   -0.42924910412587
H           2.20926478464231    3.76411387451218    0.63395833010396
O           0.94619039832200    2.93354396076017   -0.78102037423996
H           0.14701287548071    3.21707259416328   -0.28190415555448
C           1.82309744000302   -0.09986885174778    3.51974856799889
H           1.00461787236329    0.25799979792000    4.14339718716878
H           2.07225963320992   -1.12547119638240    3.80474906921211
H           2.69767917438871    0.53621235780771    3.68136307037669
O           1.39322955239736   -0.03932075475380    2.17782982499462
H           2.13079837700595   -0.36741151682468    1.61992421655290
C          -3.37392643963998   -2.89377146968670   -0.43313125812212
H          -4.17433921887785   -2.81084443992908   -1.17423859632108
H          -3.21309633001485   -3.94747192453858   -0.20673881835173
H          -3.68112366083584   -2.37228384199274    0.47969703688738
O          -2.16190441551950   -2.38295208432894   -0.93101263493614
H          -2.29204460318926   -1.43262998346625   -1.14648888403903
C          -2.48829341608231    3.41668393489119    0.09333171686285
H          -2.66986694584282    2.45141801312047   -0.38574123795202
H          -3.30263364150209    3.62675149066546    0.79305119238754
H          -2.46510794579420    4.19782880514091   -0.66575651577795
O          -1.24075198495682    3.43850703804209    0.75045722218789
H          -1.22134130036652    2.69793486611623    1.39358400169158
