12
-16.459991311505
C           0.93009787495500   -1.48526912311263   -1.87312008727393
H           1.81588117418969   -1.64975959103026   -1.26271996556143
H           0.44960817886632   -2.44732572437927   -2.07288669264697
H           1.22967413615945   -1.02572580979444   -2.81916108086205
O           0.08393070414072   -0.63164454596016   -1.13239524886820
H          -0.70998236653445   -0.45204345514929   -1.64787522407384
C          -0.61338876100301   -1.59384742377459    2.32952590330229
H           0.46827248003902   -1.67765060170841    2.48591888392357
H          -0.90587027832905   -0.54513945716137    2.45491002499681
H          -1.12456550179518   -2.19423198921911    3.08131979312644
O          -0.99667541042722   -2.09289413971086    1.07571411064629
H          -0.55717925487161   -1.56397465867714    0.38900464464127
