24
-32.945332462941
C           0.53116665895299   -1.87612143129172   -2.15962618522763
H          -0.05164858396492   -1.84887202284786   -3.08435252380235
H           1.52394928582501   -2.26826175569703   -2.37847263003913
H           0.03301506982115   -2.53914834399048   -1.44585869327665
O           0.69972897127546   -0.58396047545960   -1.62746971480407
H          -0.19042570685000   -0.22540035945668   -1.40659656770509
C           2.77970619756150    0.57974098036442    0.87489274783763
H           3.65206368303505    0.23185741294243    0.31498006387782
H           2.43597543544078    1.52517059190473    0.44450540819856
H           3.06777116149878    0.74368044834770    1.91288400752831
O           1.75634830976325   -0.38670208058461    0.87239706327482
H           1.47278336286089   -0.52980744056847   -0.05971795449530
C          -1.14482653005044   -0.61634416256040    2.73585973316492
H          -1.11385158534053   -1.61496947469942    2.28975238755768
H          -0.55572901551636   -0.62124882357482    3.65698676068270
H          -2.17718218432438   -0.36495704504642    2.97737881065365
O          -0.67534459312630    0.36088841859503    1.83814770061482
H           0.25181195491148    0.13393642280624    1.59607502204204
C          -2.07067686145913    1.63232984995797   -1.05646954345140
H          -2.31918759460377    1.60907715719102   -2.11712271766582
H          -2.94935828804767    1.95772021642972   -0.49293353633458
H          -1.25973949576221    2.34865894280373   -0.89375976909213
O          -1.68532634469833    0.32951042912005   -0.68843921929497
H          -1.43874863387548    0.34105965430371    0.26486696465010
