24
-32.944517347594
C           1.48847069373044    2.81227900027383    0.30410926754764
H           2.57205416938087    2.69408521325690    0.39181789705758
H           1.24179375862098    3.08374087016340   -0.72742453871259
H           1.16635677374148    3.61412951834861    0.96775289763022
O           0.81428058314273    1.64330317124081    0.70378565079786
H           1.10146297805820    0.90369667418460    0.12188070524989
C           1.99745180610868    0.07398181792362   -2.32169941502581
H           1.52874435587333    0.94324048750013   -2.79354036849139
H           3.01884462929719    0.32694172790016   -2.03787002867488
H           2.02412782461823   -0.74644910037486   -3.04429128287189
O           1.31777551625532   -0.30369596696626   -1.14867282394217
H           0.38237979325525   -0.49486834840636   -1.38658631219835
C          -2.52493639525412    1.05420776750614    1.35153061034394
H          -2.55195973705422    1.87178563349555    2.07733097760731
H          -3.54636111360709    0.79966080309861    1.06922372007746
H          -2.05277322285223    0.18438664856584    1.81887339875577
O          -1.84912025896887    1.43814048071588    0.17828938110249
H          -0.91372745008648    1.63105587402414    0.41478456554833
C          -2.02081751999266   -1.67477598951796   -1.28114138575052
H          -1.69975685341864   -2.47502446067156   -1.94722775843548
H          -1.77434503894648   -1.94964079560349   -0.25045073816077
H          -3.10426612842726   -1.55502671254387   -1.36834691570858
O          -1.34525775847725   -0.50542851805800   -1.67740036449450
H          -1.63235693827304    0.23309218534884   -1.09402034036705
