30
-41.184769421542
C          -1.83776121868220    0.60940680206838   -1.24936587998855
H          -0.81325207005364    0.26718289952750   -1.42199801155117
H          -2.52710186453819   -0.05332952163881   -1.78189605066007
H          -1.95259525437672    1.62024888636997   -1.63947084675139
O          -2.14207747153915    0.65556595954286    0.12555281961037
H          -1.93297558845662   -0.22333915651314    0.51017462688252
C           2.28881803307772   -2.10646422547099   -0.05696573615975
H           3.17913284757997   -1.84575358275739   -0.63505266106865
H           2.53395869784956   -2.06550525914790    1.00862839353725
H           1.98398996624341   -3.12031683915131   -0.31644863189409
O           1.21400797803487   -1.25135400433391   -0.36749414663041
H           1.48416095440543   -0.32961255012920   -0.13971602276624
C          -1.64578347868579   -2.92668954368349    0.61194626789629
H          -2.61970797921398   -3.00928457711400    1.09353084915507
H          -1.77753498804258   -2.96921651194269   -0.47380010771083
H          -1.02300543002698   -3.76970233588063    0.92595657718256
O          -1.08357309406911   -1.70152553969868    1.01457750418243
H          -0.22408991317017   -1.58576980249689    0.54664037417133
C          -0.51946689776435    1.24312347847209    2.96056667534756
H           0.31368757284868    1.52141677903112    3.60490434755675
H          -1.45618845510865    1.53050571940484    3.44539503643510
H          -0.51549045546590    0.16067964070779    2.80696624388389
O          -0.35320161576578    1.93344042574044    1.74122613236371
H          -1.06395541327137    1.63300916962121    1.13294889599907
C           2.04397094075267    2.22916937685309   -0.62267879634829
H           2.27926276766685    3.20461216016942   -0.18947395281292
H           2.87520310866315    1.91074116677398   -1.25152280870926
H           1.14407443683361    2.32319604477200   -1.23850498377025
O           1.87963909719904    1.25626505477904    0.38116317530083
H           1.12718701647193    1.53619380233070    0.95521721844900
