30
-41.184481237137
C          -1.94366047533955   -1.23385680398548    1.92582665086949
H          -1.19317519412038   -2.00031525339951    2.14126674394909
H          -2.10696219468893   -0.63313366272715    2.82014586275506
H          -2.88288872857970   -1.72231742174199    1.65145233242693
O          -1.50836830679115   -0.36315351013443    0.90845046208907
H          -1.34660442409239   -0.89845048596647    0.09636198638620
C          -2.09663753014492   -2.28402208310372   -2.06148207554514
H          -1.79261872179109   -2.68393243516425   -3.03219465989078
H          -2.51553268126043   -3.09196488934887   -1.46167491426140
H          -2.86403716852498   -1.51885787508971   -2.21727179286319
O          -0.99254079781172   -1.76748398889040   -1.35767414568575
H          -0.59123151323754   -1.04524178487691   -1.89870793091272
C           0.64319325127922    2.20832442296182    1.76831165857605
H           0.08425385300080    2.29527489457358    2.70444490518166
H           1.61768344972931    2.67913502285355    1.89290166749538
H           0.09348856715081    2.72939143907872    0.97794440906711
O           0.87108920751125    0.86080885662306    1.43508310727012
H           0.00112400699668    0.42048527035501    1.30360827746990
C           2.60546513516094   -1.02369945762297   -0.78617347552742
H           3.33831440406681   -1.14235530921234    0.01576073154845
H           1.75828873292555   -1.69049462782843   -0.59962767200722
H           3.06934436616881   -1.29219704608211   -1.73453092362373
O           2.18536492721862    0.31819966161694   -0.89366241878565
H           1.79232677145610    0.57822381553831   -0.03124353314933
C          -0.67958700688120    1.52819742224446   -2.21699577861274
H          -0.11004609678506    2.44671834156058   -2.37822735984072
H          -1.56663140826357    1.54827745058797   -2.85008774921867
H          -0.99148178990121    1.47754065148325   -1.16862858118000
O           0.07073570262649    0.39304039312661   -2.58401410749385
H           0.91671904028639    0.40994201912826   -2.07799478474628
