36
-49.424313982177
C          -2.21735721379587   -1.58930101128853   -0.25226081308325
H          -2.18367443672283   -2.63050761307489   -0.58499426248399
H          -3.24130693331069   -1.22638062956288   -0.33611151849292
H          -1.56860561574680   -0.98258896207322   -0.89045459517945
O          -1.84834339244872   -1.48368188684320    1.10466225509634
H          -0.92829603126571   -1.82165302505836    1.19769195050548
C           0.61916216711273    3.10923648873250    0.55835931185160
H           1.49564270818929    3.34628797032698   -0.04471641701909
H          -0.27041266603395    3.53643979084321    0.08538405607210
H           0.74101065541781    3.55599263480810    1.54891856954991
O           0.53108302394278    1.70676684227180    0.64240718753972
H          -0.27062740048308    1.48214602887837    1.17597141336580
C           0.73108327345039    1.25755471927814   -2.73982621485968
H           1.79698132630238    1.45854344012583   -2.59379899184639
H           0.59261013228919    0.74613605021027   -3.69213655685539
H           0.18960252106377    2.20718144930075   -2.76742784061056
O           0.22638143263863    0.41297608756536   -1.73276809449991
H           0.33999808017278    0.86445376662605   -0.86372977624244
C           1.59114962816843   -1.38094288700710    1.88208473273384
H           1.51014595245416   -0.35926311490352    1.50021577091566
H           1.26181102110708   -1.40753799934144    2.92059461545245
H           2.63612647631265   -1.69796979050329    1.83538505171702
O           0.76217257364863   -2.26578904154689    1.16178255461881
H           1.06971791434791   -2.27034382125462    0.22920628364461
C           1.02455231374456   -2.89779990343038   -2.39843325981170
H           1.47096772552057   -3.86491662702660   -2.16998744919465
H          -0.06508186392513   -2.98559962310764   -2.34945385034960
H           1.31122917231359   -2.60615317583083   -3.41341135443149
O           1.51067548645075   -1.98027302376143   -1.44956212232847
H           1.08148854620107   -1.11027610799885   -1.60836363313144
C          -1.56817721797539    0.95834100952394    3.41907073822685
H          -1.39803688039407    1.96721091803495    3.79510937379731
H          -2.48356357314323    0.56275872940136    3.86614464174453
H          -0.72764007200268    0.32071207024624    3.70974038450888
O          -1.68515325244696    1.04533059532959    2.01900419861245
H          -1.85125120401109    0.13616585176542    1.67098563481837
