36
-49.424190756156
C          -1.04683565399521   -3.56054187577471    0.22226022471414
H          -1.03676117205859   -3.34954474428083   -0.85178067511233
H          -0.31690460297883   -4.33968105300159    0.44187446611295
H          -2.04111749845042   -3.92118800895325    0.50080571225048
O          -0.68865371054630   -2.42575429420547    0.97347872190802
H          -1.32187374698666   -1.70140230254988    0.75895304994127
C           1.71992353491422    3.19591875220530   -0.97027912931446
H           2.21987439582295    3.38769833587192   -1.92377724372311
H           1.55463697474740    4.14521779581833   -0.46106521648003
H           2.36710591814951    2.56442204901280   -0.35314373963140
O           0.45956080998756    2.60263987199011   -1.16811561620600
H           0.59897288826848    1.73364365815872   -1.60814923044186
C           0.14588558823947    1.42559524086201    1.93723212607025
H           0.69719384179703    2.30899454040720    2.27120396462930
H          -0.31743831481793    0.95250797866574    2.80240369441131
H           0.83970275548588    0.72039361976564    1.47239412430804
O          -0.89282791421950    1.78602981155056    1.05081880929642
H          -0.48344067813622    2.18825644632337    0.25156706687940
C          -3.58884232506425   -0.28171902925808    0.73127022078794
H          -4.09143989852124    0.61824636135981    0.36891521931293
H          -4.13378583961647   -1.15832973069824    0.38075699691239
H          -3.58960476092712   -0.27265651115241    1.82551762817346
O          -2.27917978248017   -0.36818863444843    0.22177494163898
H          -1.78321661149442    0.43590557609969    0.51548533330510
C          -0.21451145343701   -0.58995325121251   -2.52587187312844
H          -1.00678424714557   -0.56925109168067   -1.77287435305098
H          -0.55894408587640   -0.07520976346704   -3.42188975522116
H           0.01575006637541   -1.62831105974714   -2.78431412799038
O           0.94053952957176    0.08550431065130   -2.07841104552208
H           1.25366559750142   -0.35259561815798   -1.25797148995008
C           2.68640205696503   -2.10406883797586    0.23487359029700
H           2.48667711798825   -2.93005799233694   -0.45561620779495
H           3.57021656775100   -1.56473834171341   -0.10448204314966
H           2.87831878370294   -2.51263966206262    1.23074755689546
O           1.62049592896730   -1.18588393153963    0.25993725516795
H           0.81183470938470   -1.65318283651138    0.57546133919853
