36
-49.422125353391
C           2.59536822465307   -0.93792216625499    2.43193856668617
H           2.43933350036843   -1.12762638027086    3.49375106299462
H           2.51366704381753   -1.88128064523729    1.88208585262709
H           3.60081971811803   -0.53289581532978    2.28887425881023
O           1.61191058871831   -0.01898790058150    2.02215765082828
H           1.75799061487681    0.18001834465126    1.07283724146409
C          -1.12590365460309   -1.94316264792288    2.48852522895696
H          -2.15453299297283   -2.20691857096904    2.73169989215989
H          -0.95296231896141   -2.12506367559154    1.42342658601339
H          -0.45123541535413   -2.57298973879589    3.07512862653513
O          -0.96002502976764   -0.58038662368520    2.81118743841477
H          -0.03172563807980   -0.33211811822034    2.61491648300348
C           2.50101539570738    1.74849440182710   -1.01558176604532
H           1.66835830137134    2.45766761670783   -1.05615812378217
H           3.21924051693795    2.08566732249427   -0.26862279075382
H           2.99090583851506    1.72192651372282   -1.99302343620485
O           2.06598889170911    0.46677957553524   -0.63123201548761
H           1.40172472264175    0.15750354878014   -1.28874236184639
C          -3.14275749125368   -1.34561606098223   -1.57947033349049
H          -3.44721318658286   -0.46188717449609   -2.14890135285778
H          -2.99503542046243   -2.17929525786896   -2.26607357012322
H          -3.93702321384241   -1.60283651647857   -0.87414809844291
O          -1.92315602141428   -1.12936930903791   -0.91108267990933
H          -2.05509176431481   -0.39237146234814   -0.26602748404058
C          -1.34320578300093    1.94861732942174    0.64611143797129
H          -0.30759092818903    1.61504938111724    0.54285294455878
H          -1.66545013148190    2.41999948946220   -0.28209843795620
H          -1.40077184291623    2.68054568127761    1.45605565641060
O          -2.20924793586503    0.86209136152768    0.88628419543132
H          -1.88863639011704    0.39456208618302    1.69157345715929
C           0.57418355075736   -1.42249755375442   -3.22657677064282
H          -0.21466171334048   -1.69055285443390   -3.93537915653505
H           1.45843994313867   -1.11438377076033   -3.78386840922642
H           0.82074752760037   -2.30003125446492   -2.62108393588452
O           0.18522630578265   -0.33601982852008   -2.42097488084029
H          -0.59942907853853   -0.61189227709690   -1.89243978732945
