36
-49.424102180187
C          -0.08547144259742    0.49425988614357   -2.35178967583388
H           0.51477965561700   -0.38637864308014   -2.10357628433332
H          -0.94679808882051    0.18376529567820   -2.94307449023717
H           0.51923309778361    1.18451999871415   -2.94437979857922
O          -0.58028731369019    1.12198984066421   -1.18902446940121
H           0.18797449487900    1.48901870183269   -0.69362897651201
C          -2.85132185645355   -1.14069617320929    0.10875548203886
H          -3.51145352917368   -0.30001140704201    0.33680980932671
H          -2.96928821636735   -1.40822848342058   -0.94610724703920
H          -3.13554833436595   -1.99211145136654    0.72710772042124
O          -1.51218480404350   -0.83014955588966    0.41225066189157
H          -1.24121255846507   -0.05237310712387   -0.13532380927306
C           0.71998890526054   -0.15957559220217    2.92189006462160
H           0.33109246347056    0.67636214154488    3.50288665214381
H          -0.03307624278951   -0.47072799746491    2.19270987262066
H           0.93155439412675   -0.99104972708559    3.59927718090446
O           1.89948503466066    0.28809072663210    2.28943403046305
H           2.28675025255612   -0.46572410924872    1.78968174946017
C           3.49068662333089   -1.03545418843719   -0.40749247987197
H           2.96160048546553   -0.15811620974033   -0.79169155945146
H           4.43285113635313   -0.71527111298315    0.03559041418780
H           3.70018329508437   -1.72000617999216   -1.23350887945712
O           2.75146160160537   -1.67549229692205    0.60859181943471
H           1.92861334223155   -2.03283999028538    0.20886010490275
C           0.07790949440846   -3.87594902294615   -0.05539413267545
H          -0.87269022484276   -4.20455636196065   -0.48557064426694
H           0.87276810844987   -4.52827603743318   -0.41510125295505
H           0.02081394142138   -3.95048234055916    1.03477733560919
O           0.39425986274135   -2.56620232875880   -0.46340633157622
H          -0.30750832186313   -1.96171460988228   -0.12920349562198
C           1.60599897741072    3.30424487873184    0.62111846132814
H           2.54424083114312    3.54451681845558    1.12770185454839
H           1.50842067334439    3.93309209485068   -0.26353665323847
H           0.77221773332785    3.51097249992374    1.29936992369645
O           1.59383191032352    1.96510113527454    0.18865845973976
H           1.70577981545623    1.38568316036444    0.98031971779055
