42
-57.662325400300
C          -1.61780195152497    0.12264954201737   -1.65607721112055
H          -2.63684648808077   -0.27218622051031   -1.66564728215649
H          -1.34227758517770    0.41241993283445   -2.66995522053805
H          -0.93457332685434   -0.65525305684333   -1.30332778458495
O          -1.53270658450658    1.28103818437427   -0.85448730878047
H          -1.84570411371390    1.04874254208996    0.04532360327952
C           0.29210733642708    4.18761344459974   -0.81575878264198
H           1.09665955818781    4.86563508496624   -1.09852174437837
H          -0.66596673065888    4.69903104328124   -0.94144755479151
H           0.41093690862806    3.91137996880534    0.23701117290882
O           0.38107747884011    3.06309317861341   -1.65624647532233
H          -0.33864614699398    2.44252854783061   -1.41665618514582
C          -1.81100542947427   -3.07699350968741    1.78979100900650
H          -2.49030198679359   -3.02931993808730    2.64030930672196
H          -2.39537169145018   -3.06807774307894    0.86461943424574
H          -1.24256388873404   -4.00999566403989    1.84302790481365
O          -0.95998429714843   -1.95833374894643    1.86899711494906
H          -0.35206685337706   -1.98131610365881    1.09463243780454
C           2.49443001394028    0.71154309370359   -2.83818426296070
H           2.48910633111756    1.30460236200203   -3.75605129834449
H           3.35189019183531    0.03926015893371   -2.85519048138859
H           1.57458644723903    0.11983646238005   -2.79209916726381
O           2.63253536998101    1.53368857601923   -1.70286955700824
H           1.88231572680287    2.16916607204804   -1.69716719805782
C           1.49098539626710   -3.15210609747078   -0.45587689321164
H           2.00461102381637   -3.42444322429940    0.47090919585931
H           0.81609861189293   -3.95868955631901   -0.74261800915744
H           2.23483715749862   -3.01434303965727   -1.24518068790881
O           0.71164605533054   -1.99209863142630   -0.28716739520276
H           1.31413097810720   -1.25525304086613   -0.01540423899887
C           1.45298755661766    0.85008441731591    1.35876277655476
H           0.55753639498043    1.19174160502938    0.83201911922915
H           1.15595474651846    0.23702192705962    2.20944781257311
H           2.01116824889478    1.71820849359918    1.72019503970503
O           2.25760173790266    0.04400930944081    0.52698231858410
H           2.51555934579308    0.57917584982449   -0.25928992145959
C          -2.21341756500071    1.16603363660518    2.78405818498658
H          -1.17114740864949    1.38438592683282    3.03854421071317
H          -2.73804348211093    2.10261766251395    2.59691643349320
H          -2.68560670440962    0.65822960926830    3.62987170948155
O          -2.30687512947987    0.39588527178689    1.61203276690878
H          -1.83922690524167   -0.45797425942787    1.75655347259751
