42
-57.662792179450
C           1.07812346726698   -0.88917631194524   -2.08500443637713
H           0.88910913096179   -1.96335471075118   -2.00144813659018
H           1.73852868183770   -0.71243106975064   -2.93325800008706
H           1.56311789119989   -0.53334491113496   -1.17225800520917
O          -0.11738099645406   -0.18435912600851   -2.33963207363127
H          -0.74565745655950   -0.37164526046231   -1.60982823057414
C          -1.43451106228276    2.87441891786078   -2.23306956777556
H          -1.65518770673103    2.77075598218937   -3.29899776365668
H          -2.14402492921943    2.26530485078596   -1.66402725262366
H          -1.55063486763991    3.91996666260535   -1.94825223673178
O          -0.10455342464497    2.50910598320199   -1.95232876637612
H           0.00273862296576    1.56158917436969   -2.19484578456278
C          -1.39885249738549   -1.95858308182464    2.95912735666817
H          -0.98141326834036   -2.61555266644034    3.72610166956971
H          -1.22876459026475   -0.91798087743610    3.25246978238511
H          -2.47132727715786   -2.13827114409085    2.88537670049253
O          -0.83779160792568   -2.23207839153722    1.69690615434446
H           0.13601367534489   -2.10285760297637    1.76715615606013
C           3.66894203514926    1.16515958636469    0.96257065650431
H           4.44962446805166    0.41052657702513    0.86652044581248
H           3.87233054067101    1.97924616684139    0.26287617620640
H           3.67728370403779    1.56225261050718    1.98220117081870
O           2.44141536965661    0.54199804707126    0.66794176901416
H           1.73338776084441    1.23013621510291    0.71039009754559
C          -0.65774667808941    2.10959164790778    1.33298804834761
H          -1.12193847854943    1.23740180969690    0.86612756042229
H          -0.41558423079602    1.87895177110864    2.37029386437227
H          -1.36276269188166    2.94590105210714    1.31395792975092
O           0.55012652744277    2.45584400650517    0.69038816681566
H           0.35918029109825    2.59580146962710   -0.26537526162217
C           2.66622752571955   -2.73914685713409    1.43123079060023
H           3.71225218317325   -2.53465753019178    1.67693734657697
H           2.38050890364447   -3.69342717015960    1.87267249492375
H           2.56298163433571   -2.80115231877030    0.34365970686216
O           1.81676433750520   -1.75559128991712    1.97210320652966
H           2.04065251036190   -0.89426140638176    1.55219868509131
C          -3.06738423957810   -1.21809741638713   -0.68313288168798
H          -3.79863711964708   -1.23216332909380    0.13031933892470
H          -3.44786018406486   -0.59416326012193   -1.49148417606622
H          -2.92918897980437   -2.23783250230827   -1.05354267782847
O          -1.84772796037667   -0.65760301656451   -0.25847411349889
H          -1.47063900514505   -1.23644717894138    0.44564202124877
