42
-57.663268601577
C           2.34549328850838   -0.26073014140016    0.46218822295848
H           3.06491677304211   -0.17521736619197   -0.35588697210857
H           2.88866130730584   -0.40997122278181    1.39507572634235
H           1.69544415293487   -1.12088156380762    0.28353570459959
O           1.59759594911790    0.92899925987743    0.60175168032799
H           1.14325777928209    1.10553516653198   -0.25307650608083
C           0.23991268276752   -4.23463283093386    0.76220387937479
H           0.87847129747746   -4.55373336478161    1.59001381863115
H          -0.75374424455229   -4.67599381138071    0.88842195055110
H           0.67073249508691   -4.58894523676719   -0.17405960107600
O           0.17080160898615   -2.83074311833782    0.68710363477766
H          -0.19412321417172   -2.49140369282183    1.53937870456689
C           0.14137488921841    1.48837138760061    3.62179542053865
H           1.02135900200085    0.99545249390820    4.04575870965167
H           0.39511275374583    2.52399766273611    3.38233348109941
H          -0.66118362923114    1.48002714084979    4.35905389552515
O          -0.32614955944102    0.80648843932797    2.48215628271136
H           0.38488867725328    0.83672437381514    1.79518301702877
C          -1.17108781326675   -2.00302253168934   -2.36368950939217
H          -0.91130576202861   -3.04266889137849   -2.58077244038257
H          -1.94013041899730   -1.67628192951864   -3.06235048602628
H          -0.28343799338646   -1.37631702773848   -2.48908924880717
O          -1.70443846097348   -1.87428580530320   -1.06384885061505
H          -1.02380674395433   -2.19559987374984   -0.43212075240136
C           0.31822473057118    2.66972439543780   -2.22241285729710
H           1.36189570555200    2.84625459073247   -2.48130333943127
H          -0.29556342426663    2.78287415067564   -3.12001000913022
H           0.00456747790233    3.41159977957695   -1.48120048681194
O           0.22825338326465    1.36280488742865   -1.70878830306743
H          -0.71570505758142    1.18502842585899   -1.48696588178014
C          -2.80518130854609    1.24514927850452    0.22369031329079
H          -2.07837220220273    1.05770026603999    1.01844452971556
H          -2.96462530961853    2.31923626230048    0.13119514016075
H          -3.75577105716598    0.77034039207009    0.48211256755851
O          -2.33527014420045    0.78959620401752   -1.02648110055674
H          -2.22162783142186   -0.18453367880431   -0.98731140296994
C          -2.41993955478865   -1.89241368360087    2.66878877118879
H          -2.69319147033076   -1.64010982081880    1.63976171307287
H          -2.69824258362099   -2.92714972733601    2.86802606366770
H          -2.96753852220659   -1.24123575217667    3.35432168600829
O          -1.02785185708201   -1.78871555161573    2.86985649864677
H          -0.77431777527200   -0.84137795414648    2.78258338458134
