48
-65.901659362230
C           1.81692827102425    0.12391437052786   -0.32507502707245
H           1.91156508819006   -0.91953371056348   -0.01709083766165
H           2.67914815148091    0.68146423774552    0.04163135789067
H           0.90335102873807    0.54193022240985    0.10868940843336
O           1.81476446107139    0.24755524374049   -1.73175612812852
H           1.07324478838584   -0.29558841339672   -2.07772295365535
C          -2.11163521030492    1.62183603995162   -2.07412943218890
H          -3.06285467514869    1.38436102220443   -1.59800149698942
H          -2.30624336585907    2.14599268138854   -3.01300468767958
H          -1.57045491666906    0.69647035685276   -2.28565245203820
O          -1.39186956283708    2.44629478743665   -1.18074981237999
H          -0.53102012951646    2.66413263049172   -1.60379195175180
C           1.32476660640970    0.67821708407803    3.48486510426810
H           1.90683819555365    0.06580521420203    4.17266348914528
H           1.97021102796739    1.00911670951402    2.66596035381442
H           0.95059072334992    1.55450947033614    4.02093270546810
O           0.26528803273542   -0.11956519158364    3.01119717258735
H          -0.27921570749338    0.42080891368580    2.40588175831836
C          -2.18563824858834   -1.73877188185518    0.46807167275748
H          -1.85666213201386   -0.72546356938770    0.71102950391993
H          -3.02509116404626   -1.68925716153422   -0.22464578358061
H          -2.51202096547489   -2.23857972628954    1.38422077410130
O          -1.16266563049055   -2.47197228684593   -0.17153005678416
H          -0.39623130520668   -2.52206873016663    0.44024366078174
C          -2.21939607570717    2.18547986901831    2.05034235683980
H          -2.00627465481265    3.25819244243756    2.06650620305611
H          -3.21092821242312    2.02894091130312    1.61645894179311
H          -2.21728099867458    1.80451077693569    3.07156757417484
O          -1.23286166838316    1.48301135663357    1.33165814423361
H          -1.25080808236312    1.81363973636040    0.40122614695790
C          -0.12016032725255   -2.24820123618510   -3.43257785072932
H           0.62922969673252   -2.97472721264472   -3.10451050427840
H          -1.04529612717595   -2.77792112391474   -3.67510478370700
H           0.24271603481253   -1.73809597838279   -4.32430917254193
O          -0.34249784229369   -1.26456409446218   -2.45098099704222
H          -0.67364220709223   -1.71069808183332   -1.63612400941040
C           0.89339405252980   -3.49703394952330    2.58051161120819
H          -0.04576142292973   -3.57670352277301    3.13623876298569
H           1.04267872195189   -4.40616551321245    1.99901807549828
H           1.71734467782929   -3.39069657480700    3.29185730766903
O           0.86400992326366   -2.42105440724459    1.67292515268305
H           0.69375415504233   -1.59491041240780    2.17752601330718
C           1.94441264323772    3.68506817241524   -1.72429158707642
H           2.02135886753162    3.50980145272556   -0.64576745979236
H           2.94148695713555    3.61168849100136   -2.16734974930856
H           1.55536423150811    4.68894277631429   -1.89239506705926
O           1.05099021815056    2.78401570640749   -2.32956767057920
H           1.39830237643755    1.86954026550321   -2.20645167124921
