48
-65.904526627317
C           3.29420253367490    0.37358450978267   -0.47194374969167
H           4.10568010985646   -0.32971401614884   -0.26519995636590
H           3.72303160825288    1.35639107345614   -0.66517631693628
H           2.63612785629232    0.43007497846726    0.39839090367906
O           2.58420080025543   -0.00516174375177   -1.63325502193315
H           2.17674725368063   -0.88428846308222   -1.46915766570828
C          -1.16732243434927   -1.28050199174812   -2.89640498818195
H          -1.99957847133875   -1.98338154412036   -2.87513779176329
H          -0.82887251651214   -1.16738448597697   -3.93009954796764
H          -0.34712881006551   -1.67152621484653   -2.28967601268729
O          -1.64744917761539   -0.05309421985736   -2.38734269520647
H          -0.90311387778633    0.58859684865482   -2.38453409602818
C          -0.84813714005917    2.81344330239215    0.51765580991624
H          -0.38334421219019    2.44845177605377   -0.40130310647336
H          -1.80305903686357    3.28780015892614    0.27480250511545
H          -0.19747094668690    3.55350683179238    0.98250110229562
O          -1.02815598341256    1.77176284244374    1.45503989867118
H          -1.60078869003772    1.08675347200001    1.04435362315842
C          -0.65878216818039   -2.34989835389671    1.86724355462720
H          -1.28568422887904   -1.65047138171505    1.30909277539956
H          -0.90610624033963   -3.36981165034556    1.57441317351453
H          -0.85381089652726   -2.23406068176929    2.93701536153162
O           0.71149114475902   -2.15685511092469    1.58214191865287
H           0.94730237067507   -1.23448826363749    1.82594591264773
C          -3.91946539131147    0.15088702680989    0.12270159403940
H          -4.26097141186137    0.22519602905754    1.15494408961534
H          -4.14103709335457    1.08716546888397   -0.39810116655834
H          -4.45607525305613   -0.66338356829267   -0.37201096880641
O          -2.53534051309800   -0.10132201717716    0.15605365372433
H          -2.20792748147384   -0.13702618141120   -0.77530530164271
C           2.25466163420216   -3.52394614735812   -1.11103556251376
H           3.10856100727066   -3.45110761542964   -0.43096578416808
H           1.70489917047648   -4.44290849380221   -0.88967643237180
H           2.61671960311951   -3.56581806862339   -2.13808618240677
O           1.41921703889615   -2.39627617066015   -1.00654949190762
H           1.11181707192329   -2.32848535286960   -0.07016710349073
C           1.41687427712278    0.73137176875128    3.56288377343541
H           0.53906357320668    0.47160557386857    4.16197994384432
H           2.26371573342185    0.12658163444523    3.88655090289822
H           1.65227839357836    1.78735876930174    3.72164464225974
O           1.20439940816340    0.45935544783893    2.19855723424404
H           0.41692069688465    0.97689663404676    1.90202849044996
C           0.86766206557759    2.19776765465337   -3.55777839827533
H           1.71851034119561    2.87503247291703   -3.44333769442224
H           1.11285964271378    1.44814923319616   -4.31599845985645
H           0.00043605491302    2.77004699854610   -3.88654465866162
O           0.53176768008403    1.59472661049300   -2.33138430296891
H           1.29920031876790    1.04519318746315   -2.03990123443661
