48
-65.900539133787
C           1.25004850794424    0.95340324751557    1.31749656748625
H           1.20002638802808    0.23147011175305    2.13678813302564
H           1.32332006238340    1.95821959508997    1.73438711962575
H           0.34555818467068    0.86892805328501    0.70978711332689
O           2.40437645065322    0.74355999362229    0.53111934166119
H           2.32311028304221   -0.15054706409761    0.13684316900599
C          -1.33479211429311   -0.90769390434062   -1.50014996987806
H          -1.99735946620543   -1.18559620168352   -0.68075855859525
H          -1.87849832357914   -1.00030527108042   -2.44545006833000
H          -0.47359115911625   -1.57973195019766   -1.51493651818846
O          -0.92849843936173    0.42344259914179   -1.27640234297744
H          -0.31181006394871    0.67941057652809   -2.00140638613433
C           2.89082855075281   -2.73359249806129   -0.16682743526527
H           3.28320962335414   -2.69897573614778    0.85335709663971
H           2.54652384385690   -3.74978457062287   -0.38135753759350
H           3.68750112690062   -2.47596017346441   -0.86421172479855
O           1.85498500770847   -1.79804479139724   -0.35006275954203
H           1.15265341499702   -1.98213131882364    0.31377400402185
C          -1.87301398853309    0.06321638870508    3.53873650933773
H          -2.85072303378130    0.42768779338266    3.86604731560321
H          -1.55410783805796   -0.73837871017313    4.20435586832792
H          -1.14956662411648    0.88302244736843    3.59705158303053
O          -1.93868197664887   -0.47106060318821    2.23891965485194
H          -2.23562042981770    0.23960558985126    1.62989574713230
C          -2.23646469376331    2.90106507527971    0.79235415252700
H          -1.17915781720455    2.97759237813182    1.06709000862877
H          -2.42539366977418    3.54301410214134   -0.07258424537588
H          -2.84596433230658    3.24613833608131    1.62721921106784
O          -2.60623654608973    1.56966461745482    0.52975124141101
H          -2.07225614469762    1.24023197129958   -0.22290504700340
C          -0.69792135307917   -3.52564593853052    1.48669225065260
H           0.03920025677237   -4.31474416500576    1.33820424857079
H          -1.26534246450624   -3.73830808389752    2.39616929254404
H          -1.38591357581136   -3.51307502422341    0.63531195885054
O           0.00330357390377   -2.31012235394641    1.59682768497151
H          -0.64669601329554   -1.60164817358002    1.78841000820727
C           1.95624145530865    3.68882797582314   -1.15562791760627
H           1.94404139994621    4.35232961982888   -2.01974586163043
H           0.92911482750358    3.54785646252729   -0.80232689192142
H           2.54674802001499    4.15313065905440   -0.36064056740993
O           2.52792049483711    2.47291025908851   -1.57095711998807
H           2.57271826643098    1.86872306943008   -0.79435405006959
C           1.64929883047639   -0.18014806052949   -3.49183340769767
H           1.00456114268447   -0.81052222278084   -4.10418375188655
H           2.55214630447143    0.05982548459468   -4.05863352238420
H           1.92881487628594   -0.72382883547544   -2.58489538910678
O           0.91901697146321    0.98752511813018   -3.18356521142909
H           1.51858207620714    1.59467928302488   -2.69438684873004
