48
-65.901588748359
C           0.89940309240848   -1.89093100232909   -1.48002623225715
H           1.38159304527394   -1.42081609711058   -2.34097860601109
H           0.88009483546444   -2.97037105539466   -1.62883997743962
H          -0.12251735465124   -1.51666235610350   -1.38956063524380
O           1.62682642477897   -1.64553362683123   -0.29396606482473
H           1.68966510145672   -0.67176967572286   -0.18721364249194
C          -0.90355451556303    2.15516542661741    1.46776970833435
H          -1.43641902241803    2.73321372695255    0.71304995201161
H          -0.75107588619537    2.78066612203299    2.35149997899233
H           0.06663578999980    1.84610290695213    1.07185794698811
O          -1.70840030290133    1.03733813825212    1.77458051047482
H          -1.23865442342032    0.49980310396925    2.45107208988786
C           3.02011368458595    1.62453929839427   -0.42182906427755
H           3.55885792371267    1.23334790175264   -1.29002090230289
H           2.99334312147570    2.71662961441251   -0.48310560333411
H           3.54816037940559    1.33443803770173    0.48594010198567
O           1.72162102258252    1.08889956942376   -0.33913156435016
H           1.23983308982304    1.31240879744892   -1.16917272490243
C          -2.26265974844987   -0.39161252228991   -3.70032431027257
H          -3.27240477392908   -0.80305435866065   -3.61486040819956
H          -2.16056152897441    0.09275542511401   -4.67095686148349
H          -1.53763835366177   -1.20888885368055   -3.63086741137642
O          -2.02876809327656    0.58837979578173   -2.71747162665491
H          -2.10501667499276    0.16521509972439   -1.83542405561362
C          -2.61946692244598   -1.80280260544563    0.22064294681380
H          -1.97154849627970   -2.31127532633743    0.93975624422997
H          -3.56454878912022   -1.54050258227578    0.70433304285716
H          -2.82181598234643   -2.47645888534943   -0.61247044526382
O          -1.98222976720315   -0.66138893704092   -0.30626532774669
H          -1.87249311237032   -0.00802553565634    0.42436038613946
C           0.21148551877081    3.11820950615874   -2.76436833924144
H           1.18313216447381    3.61181028619765   -2.74449033640466
H          -0.28899620703562    3.36031155008929   -3.70529256176078
H          -0.39709521252950    3.48941070579926   -1.93395161149304
O           0.43948926575899    1.73339408293944   -2.65182837542699
H          -0.43315595538988    1.28125937098193   -2.70612722404580
C           1.21770191757966   -3.58358100963512    2.43458698144833
H           0.71984822061866   -4.01568770613880    3.30285045699661
H           1.46984377424956   -4.38541241108354    1.73564561742386
H           2.14087426350931   -3.09248005751468    2.75701073989318
O           0.32636335555849   -2.66381626897215    1.85155123602991
H           0.76355761793971   -2.28675289451089    1.05073090150845
C          -1.25922022007416   -1.18412388082407    4.46226722207336
H          -0.72624143392179   -1.90386388668085    5.09085359330615
H          -1.62300439516580   -0.37060241287922    5.08910896423533
H          -2.11333402664444   -1.68455412683249    3.99545570575229
O          -0.40431139029360   -0.62019073616293    3.49784254875145
H          -0.09656161332089   -1.34136100820223    2.90263573202427
