48
-65.904187403135
C           0.98093441419314   -3.10708384574683    0.22082120846505
H           1.74958266730766   -3.50033166616849    0.89083411169555
H           0.62489904680904   -3.91402987947032   -0.41924235599628
H           1.41150027091460   -2.31779634395828   -0.40081574680844
O          -0.13024872408592   -2.63585420015023    0.95358861570025
H           0.18715107709197   -1.93787750532135    1.57120930128992
C           0.35879318954505    3.18886584128032   -0.36475328269565
H           0.98120401002888    3.76584918028992   -1.04791077437201
H          -0.08749028033840    3.86823746441271    0.36672829861766
H           0.97850326889930    2.45533396819196    0.15707284795233
O          -0.63670121970678    2.56127441082161   -1.14351011553115
H          -1.21655113637446    2.04600134032054   -0.54190946812760
C          -0.12705497173587    0.27308396099891    3.00366896120105
H          -0.75038724436231   -0.30933858909750    3.68133149813865
H           0.34427642829134    1.08424665480190    3.56550764905319
H          -0.75118510066785    0.69825143480861    2.21364851700272
O           0.84314437310060   -0.60587846093996    2.47691816313903
H           1.42250872270266   -0.09468936715045    1.87139885133499
C           3.80103652054473    0.69972533409804    1.07775413224040
H           4.42612819360048    1.21103994643912    0.34003919867329
H           3.88886165439915    1.21605985154227    2.03312657076813
H           4.15499198125926   -0.32902959011350    1.19471410239929
O           2.44400170014339    0.73479099670029    0.70540345943187
H           2.34576045155051    0.25999014049707   -0.15322884614611
C          -0.86939009963017   -0.02307967448653   -3.29211269989088
H          -1.29393524103826   -0.51682571520744   -2.41416723824331
H          -1.63360191417844    0.60150837755886   -3.76140974794452
H          -0.54422664916929   -0.77887263215397   -4.00669959337189
O           0.26615461381845    0.74403496744790   -2.95177341129189
H          -0.02377112206116    1.46176420847417   -2.34332948725745
C           3.35986357628186   -0.48372294937624   -2.50020008951664
H           4.18834146981238   -0.95242074975889   -1.96873206671204
H           3.19568366591950   -1.01634822217695   -3.44044580439740
H           3.61641440519363    0.55606359977849   -2.72427217546272
O           2.22609124873774   -0.56257315804415   -1.66939339131825
H           1.47127507258755   -0.13572896552150   -2.14644225981232
C          -3.24177836717873   -2.29811030405199   -0.26401072524390
H          -4.07073490578813   -1.82291950187414   -0.78892742715830
H          -3.10617784992950   -3.30877070850616   -0.65754800701516
H          -3.47936156388503   -2.36389602787998    0.80202135482289
O          -2.09534494403282   -1.51128156572066   -0.48429291189370
H          -1.33982000022151   -1.93794150962126   -0.00825401428237
C          -3.59625776647812    1.42349295179177    0.37835204940171
H          -3.65935928084662    2.44534579651434    0.75099909872311
H          -3.95778333353355    1.39763523117841   -0.65409519209344
H          -4.23135663225389    0.78154045210652    0.99555045546645
O          -2.24684148980213    1.03065577034522    0.45795125700627
H          -2.17145367360957    0.11033055053339    0.11213695789785
