48
-65.900652871948
C          -0.09883560114901    2.00933058701283   -0.59364697539404
H           0.36764724044830    2.31660085240318    0.34410120645841
H          -0.91469195447746    2.69511024847844   -0.82266379168350
H          -0.49739958395317    0.99689266276531   -0.47516756491827
O           0.81330335839836    2.07386013442360   -1.66931502661301
H           1.57210794486743    1.48826887693518   -1.44825888543786
C          -0.73099139027638   -2.52278719976854    0.82355791556473
H          -1.12290490995841   -2.73888643778913    1.81682290158289
H          -0.57069159190424   -3.46473459607150    0.29317722930704
H           0.22209546495549   -1.99598881940098    0.91945865781836
O          -1.69261225666920   -1.72613241933723    0.16263066765168
H          -1.38949218859373   -1.59222012783443   -0.75871987748727
C           2.88844251081004   -0.46461756077826    2.57795010033764
H           3.37340328971122    0.51339404757305    2.65106229897920
H           2.55482674185729   -0.77345653950028    3.57280692104632
H           3.61019817407663   -1.19161057107285    2.20679747078016
O           1.81467256529914   -0.43656901981131    1.66768796826619
H           1.15658605825390    0.22260056668105    1.98676826162924
C          -0.06772690767581    1.39319839062784    4.05964766302795
H          -0.82785495797621    2.10304909341010    4.39629536499454
H          -0.29214082890684    0.40919461262747    4.48264394730438
H           0.90710622772939    1.72446992315115    4.41726438570163
O          -0.00588001425494    1.34438233733226    2.65332539165571
H          -0.88186383991828    1.04531341049746    2.32172529683891
C          -3.40794494614261    1.07070159888833    1.19543203421009
H          -3.63155960815937    1.91625190945550    1.84533118945280
H          -3.09857939895333    1.44681873143611    0.21555368535775
H          -4.31104128245382    0.46614058978005    1.07534022385083
O          -2.38114811901256    0.33142787260278    1.80929320250964
H          -2.16703167178392   -0.43746918766186    1.23553196536039
C           2.55761682920029   -0.93753124123312   -1.67486881863941
H           1.54095868078705   -1.33851056843277   -1.69495533685313
H           2.84711151606215   -0.64766803220689   -2.68413678562797
H           3.24218749933313   -1.71170587397891   -1.31663689997622
O           2.63887304694692    0.22043109263885   -0.87249497456618
H           2.37205354744766   -0.02081536488602    0.03982206585315
C          -1.54421243117565    1.56043133156320   -4.09150773953248
H          -2.06198367275310    0.99585864401616   -4.86704402155475
H          -2.21542899294697    1.68614695550732   -3.23476614634220
H          -1.28536000272001    2.54679422324321   -4.48507352435191
O          -0.39211260671782    0.83403043245585   -3.74109525353928
H           0.11010800900909    1.35202723221357   -3.06613467249136
C          -1.20946949131878   -2.46699582558843   -3.30504920150853
H          -1.28837401451589   -3.40848484364632   -2.76192702555387
H          -2.19702321439358   -2.19784944235777   -3.69338298176808
H          -0.52050097350458   -2.59628679269226   -4.14390333609077
O          -0.73337317729225   -1.49735245060511   -2.40364209790392
H          -0.61593154097380   -0.65226444797790   -2.89780375917772
