54
-74.141548217309
C          -1.49180533610719   -0.15275332291285    4.19490124745174
H          -2.56235180545939   -0.14410327588432    4.39995377779013
H          -1.01773749372042   -0.91701237768469    4.81590096682187
H          -1.07157184431185    0.82468509982247    4.45343387071954
O          -1.32667181056041   -0.43599447978515    2.82615302044291
H          -0.36010842192940   -0.50729193760111    2.64601342417793
C          -1.43638387812596   -1.52301648208626   -0.30097852059487
H          -1.05750038330199   -0.50865728825541   -0.15535870047341
H          -2.39390850394008   -1.47653307181887   -0.82641595979841
H          -1.58408879689698   -1.98770195385716    0.67246560164965
O          -0.51142666884198   -2.31315542468265   -1.01775663614551
H          -0.36058938860072   -1.87150680744071   -1.88262328966999
C          -3.93200674366925    0.98099877298187    1.15520918286898
H          -4.37018337450855    1.07205667985557    2.15356313255079
H          -4.44529408034783    1.66972279275136    0.48436584404097
H          -4.07607208895096   -0.04335924790719    0.79784120475560
O          -2.57139251386425    1.33432000852918    1.16039260442547
H          -2.09527374819322    0.71853186182173    1.76059083373657
C           3.18253694713420   -0.23858186578777   -2.02124832728018
H           2.82006718698997   -0.80802040079861   -1.16178617811910
H           3.50937954856175   -0.92840699623255   -2.79909146388061
H           4.03478542145233    0.37313594116682   -1.71343421665807
O           2.16189730360847    0.56333462776865   -2.57826825889563
H           1.86720968242195    1.20151819757840   -1.89113351030238
C           1.83855734906488    3.55695842885064   -0.66548528694281
H           1.69468053223010    4.04758317294814   -1.63266828647009
H           1.40955871419500    4.18529725205560    0.11894656444567
H           2.90597423782635    3.43719921714954   -0.48086935251652
O           1.26322492046326    2.27197243138985   -0.65446448220662
H           0.29126795160514    2.37246704909987   -0.79322232088860
C          -1.88619281856746    1.96031213389889   -2.19440619920389
H          -2.97616505541782    2.02143418302707   -2.24317533790486
H          -1.46506750167396    2.51756381807123   -3.03059438537057
H          -1.57808360649912    0.91462403142469   -2.27628341216186
O          -1.39555576448180    2.55723832884470   -1.01231872660413
H          -1.83137061475448    2.14334261201862   -0.23957858488252
C           2.01614075683280    0.57448615813788    2.15216636575615
H           1.68301016238985    1.01647671780135    1.21015485381823
H           1.78667650495534    1.25589060910484    2.97104344050786
H           3.09804034536730    0.42096256683598    2.11397685446174
O           1.34570317829312   -0.63922050447832    2.41890358897905
H           1.54972378669848   -1.26341833972990    1.68839942062191
C           0.10836570402734   -1.41749832953397   -4.48719734838022
H           0.94782553430456   -2.11974310238546   -4.46856862517988
H          -0.80578321508955   -1.96339504037532   -4.71935874417054
H           0.28627403095812   -0.67231238598536   -5.26696230212211
O          -0.07506635180679   -0.80483475404587   -3.23434931858192
H           0.74007711593089   -0.28990842625870   -3.01969366826341
C           2.16741065702639   -3.62848240511955    0.67701499873551
H           1.40371655410416   -4.06648270921667    1.32633808135390
H           2.28855039018220   -4.26182996989338   -0.20595346898023
H           3.11303848569534   -3.58665092127344    1.21689113217618
O           1.83390869141477   -2.31083690765643    0.31223794230249
H           0.97628560914835   -2.33580858516498   -0.17788788711171
