54
-74.141800784350
C          -4.06822175032260   -0.32571195319054    1.22450518511494
H          -4.73801944985515    0.41232832772630    0.77522295026773
H          -4.47775956136826   -1.32270315650792    1.06266954580847
H          -4.00389889233092   -0.13383948756775    2.30004746688110
O          -2.79733792996250   -0.29012270055928    0.62192523974099
H          -2.41954435528123    0.61202662102128    0.76246136030716
C           3.18434417693848   -0.06671132276797    2.74982679641369
H           3.77005459208459    0.84657861754129    2.60951925914184
H           2.91795312327817   -0.16398101531981    3.80241366247866
H           3.79377837293396   -0.92665520487748    2.45928968707482
O           1.98579759863862   -0.02265723592020    2.01308253644105
H           2.22058158863036    0.05118163297914    1.05632245337342
C          -0.09641778337392    1.61354269277707    4.10990970450294
H          -0.83544054968639    2.34456573669805    4.43634476777321
H          -0.53874099918820    0.61324629404762    4.15211999088340
H           0.76085957427361    1.64977892190737    4.78893976514033
O           0.27864628195147    1.95461641992580    2.79806443494714
H           0.91410063406146    1.27790126862288    2.47388823337607
C          -0.15458549367461   -4.24518485818778   -1.58144653560192
H          -1.23029167697446   -4.41461377393349   -1.68747989468227
H           0.32753637565488   -4.38418522392585   -2.54889003115096
H           0.24923032487854   -4.97520726274749   -0.87448831926809
O           0.11781332717465   -2.92970822786831   -1.16258716733248
H          -0.34147593829087   -2.78156518624572   -0.30144679091501
C          -1.43669786562433    2.88580004663185   -0.04043422691167
H          -1.10491903409416    3.89379779901151    0.22034145208475
H          -0.62826323253288    2.36159848780395   -0.55565196492232
H          -2.29985073318493    2.95753322073249   -0.70190744495073
O          -1.85396775449796    2.18110808077266    1.11049681706620
H          -1.09352104425314    2.13576218165146    1.73053828196796
C           1.07926569745859    1.91813068376640   -3.22875573482640
H           0.21603707653184    2.32973797680830   -3.75947216119493
H           1.72338943948719    2.73760480911198   -2.91096472976777
H           1.63507535672865    1.26708827695004   -3.91005798645465
O           0.67913616668431    1.22638654214185   -2.07068765067871
H           0.12624247368588    0.45664675109723   -2.34766797099439
C           2.95832631000447   -1.06341069136483   -1.19003286120703
H           3.77277377201519   -1.53651931777583   -0.64191560098396
H           2.07587315373503   -1.70702579243062   -1.15548987535009
H           3.26637328485915   -0.93135390824075   -2.23066054264296
O           2.71183982429312    0.18430707446710   -0.57440805186523
H           1.99318719061288    0.63189865693204   -1.07297811111177
C          -0.51941169372870   -2.25677548158962    2.27231347937461
H           0.18316508902824   -1.43385943601120    2.11814640847582
H          -1.17001504003921   -2.02693561899364    3.12090746913588
H           0.03862496157356   -3.16552233865303    2.49640701619432
O          -1.27886906197272   -2.51253884607421    1.11006114817910
H          -1.82949869337708   -1.72217397022115    0.92122830780565
C          -2.11615092274046   -0.86436934779758   -2.64604069370819
H          -2.48073242687180   -0.03285878531774   -3.24843204394012
H          -2.61198070140536   -1.78154410624045   -2.97636743163940
H          -2.35533967196867   -0.68310655874191   -1.59548607496449
O          -0.72056476148610   -0.94512692860631   -2.85068069038037
H          -0.37311672705384   -1.67765005732347   -2.29592215623904
