54
-74.141725684364
C           1.90588298273905   -2.45772997371741    0.75575268590732
H           0.83877759811248   -2.33811058419126    0.55453409760851
H           2.37834578813141   -2.96630368339236   -0.08432458522079
H           2.03702441044929   -3.06174279470382    1.65672962720619
O           2.54131505020807   -1.20317809657809    0.89475707893117
H           2.13985602263167   -0.75386555438644    1.66651496185379
C          -1.89417642800076    0.69786183399920    4.30281137234970
H          -2.00793006438775   -0.37803613225524    4.46699813494345
H          -1.31631751378215    1.12567069164671    5.12202092999056
H          -2.88491110220509    1.15978041004650    4.29005837142261
O          -1.19370283261307    0.96269941422113    3.11014788241657
H          -1.72044774308056    0.59753090494401    2.36459716830765
C           2.10356067771480    0.76882061025751    3.91066193654302
H           1.75531730962682    0.75040798791391    4.94789680317720
H           3.13097727215350    0.40688567406765    3.87780382922373
H           2.07562515369126    1.80148655112663    3.54902309741560
O           1.33228808927046   -0.08139568163121    3.09891444196435
H           0.41130372428561    0.26171524737132    3.08177495347263
C           0.20571662467367   -1.33717576637063   -3.37630023455444
H           0.42072342697757   -2.40444984408910   -3.42022104071028
H           0.22320798972237   -0.93358770872279   -4.39255891738527
H           0.97263673270667   -0.83983576418276   -2.77703420939944
O          -1.07617766449217   -1.19520463380664   -2.80015089239412
H          -1.28549055940669   -0.23604448885808   -2.74812034337022
C           3.93155963557325    0.55116632031477   -1.65505206161305
H           4.59691326876321   -0.31039855154375   -1.75543293372207
H           3.95607087697129    1.12888803092346   -2.57877475938404
H           4.28576858747430    1.17752118319061   -0.83090678274173
O           2.60050815437256    0.14217507965460   -1.45167333659004
H           2.56540795612632   -0.37707291468944   -0.61318014940060
C          -1.95558335255519   -3.32914273786370   -0.31126786022772
H          -1.35813449900951   -4.07758690566440   -0.83941746816482
H          -2.10388119447114   -3.65553554701260    0.71775271898760
H          -2.92799383109605   -3.24058878138621   -0.80423573304295
O          -1.28987328566413   -2.08955053306556   -0.26638940103451
H          -1.17732339232756   -1.77027795586998   -1.19436396004465
C          -3.37470316219148    0.53992294431695    0.17456023864471
H          -4.13428269391392   -0.08036252997817   -0.31038258572639
H          -3.87008611533630    1.36144371208966    0.69101317151867
H          -2.70580804070026    0.94307682225697   -0.58908115470939
O          -2.66971877713771   -0.19880359043247    1.14914009156209
H          -2.16331999140189   -0.90490978568811    0.69210960801284
C           0.41542880422394    1.76001394393828    0.35674662166411
H           0.08792625331317    0.72412198578854    0.47112737695217
H           1.28480226792326    1.93245056552259    0.99449038020149
H          -0.38753726970580    2.42579164955024    0.66686283680803
O           0.71749439530120    2.05488621856874   -0.99234844523630
H           1.42841160100716    1.43677218167447   -1.27065634183038
C          -1.38403817708305    2.29402855367232   -3.69363516175236
H          -0.44537836660559    2.16340499270285   -4.24142383735483
H          -2.21423462342071    1.97978044091029   -4.32581701802528
H          -1.50475457951142    3.35250549596598   -3.44789385000757
O          -1.41643899398247    1.49774618937179   -2.53447925022450
H          -0.66037080605298    1.76324721313139   -1.95624286186822
