15
-233.51811062561
C    -1.8893881    0.7097537   -0.2320955 
C    -0.3684823    0.8280969   -0.1122453 
H    -2.3761996    1.7056231   -0.2319025 
H    -2.2963169    0.1221585    0.6135232 
H    -2.1800602    0.1929022   -1.1710092 
H    -0.1009880    1.3913264    0.8091655 
H     0.0466775    1.4047410   -0.9667380 
C     0.3448646   -0.5259557   -0.0544601 
O    -0.1629565   -1.2133344    1.0919488 
C     1.8677191   -0.3823314    0.0178917 
H     0.0833298   -1.0906656   -0.9875461 
H     2.1570114    0.1829886    0.9274501 
H     2.2684484    0.1489879   -0.8698379 
H     2.3611389   -1.3763949    0.0611184 
H     0.2452019   -2.0978963    1.1047368 
