15
-233.51716022590
C    -0.1196609    1.5611417   -0.9925366 
C    -0.4964633    0.8642530    0.3161347 
H    -0.2824414    2.6551792   -0.9224373 
H    -0.7308022    1.1888880   -1.8417880 
H     0.9464328    1.4055939   -1.2572832 
H    -1.5438358    1.1081957    0.5929288 
H     0.1357008    1.2324429    1.1538830 
C    -0.3903372   -0.6641439    0.2795105 
O    -0.9370439   -1.1270364    1.5153956 
C     1.0418726   -1.1715612    0.0877359 
H    -1.0119822   -1.0286190   -0.5804294 
H     1.6904133   -0.8110275    0.9128340 
H     1.4753132   -0.8336190   -0.8753538 
H     1.0720901   -2.2820508    0.0864900 
H    -0.8492558   -2.0976365    1.5249158 
