15
-233.51733450216
C     0.6579942    0.2868494   -1.6450364 
C    -0.2314549    0.7811109   -0.5012769 
H     0.8192132    1.0804057   -2.4018558 
H     0.2025450   -0.5819286   -2.1658017 
H     1.6570349   -0.0295394   -1.2823981 
H    -1.1777928    1.1897918   -0.9254852 
H     0.2523746    1.6251287    0.0377721 
C    -0.6085854   -0.2902736    0.5373541 
O    -1.4917608    0.2486698    1.5214790 
C     0.5906868   -0.8494279    1.2959092 
H    -1.1039361   -1.1370364   -0.0075974 
H     1.1364782   -0.0300408    1.8076407 
H     1.2913848   -1.3742622    0.6177839 
H     0.2486791   -1.5672425    2.0668436 
H    -2.2428608    0.6477953    1.0446689 
