30
-467.05540788850
C    -0.9499198   -2.3793922    0.3045122 
C    -2.1576667   -1.4792054    0.5771816 
H    -1.1373100   -3.4176205    0.6435151 
H    -0.0351463   -2.0096970    0.8076122 
H    -0.7264574   -2.4179334   -0.7816140 
H    -2.4682900   -1.5530580    1.6460822 
H    -3.0349374   -1.8301103   -0.0089922 
C    -1.9270053    0.0044377    0.2568151 
O    -0.9249497    0.5810710    1.1201438 
C    -3.2077982    0.8359660    0.3152456 
H    -1.4803181    0.0894549   -0.7579431 
H    -3.6857263    0.7543382    1.3155512 
H    -3.9460217    0.4895079   -0.4357146 
H    -2.9863520    1.9038517    0.1232239 
H    -1.2534266    0.5184128    2.0387836 
C     1.8835750   -0.6489683   -1.9938021 
C     1.7931057    0.7116587   -1.3016835 
H     1.4014376   -0.6388311   -2.9924218 
H     1.3939981   -1.4257980   -1.3749975 
H     2.9406638   -0.9584324   -2.1327745 
H     0.7313319    1.0456423   -1.2474623 
H     2.3232547    1.4856062   -1.8996812 
C     2.3634098    0.7077755    0.1304258 
O     1.7185076   -0.2550616    0.9564322 
C     2.3085786    2.1015068    0.7685722 
H     3.4278538    0.3812568    0.0737821 
H     1.2547421    2.4455515    0.8372409 
H     2.8775524    2.8502689    0.1794042 
H     2.7267247    2.0696836    1.7942730 
H     0.7765898    0.0381177    1.0382898 
