30
-467.05435996781
C    -0.4634519   -2.1574178   -1.8478670 
C    -1.6897344   -1.3557383   -1.4033952 
H    -0.5592400   -3.2209176   -1.5506887 
H     0.4677406   -1.7634180   -1.3955219 
H    -0.3453711   -2.1288328   -2.9515245 
H    -1.8034200   -1.4041019   -0.2978090 
H    -2.6144271   -1.8021213   -1.8284717 
C    -1.6682908    0.1188950   -1.8110665 
O    -0.5528105    0.7443911   -1.1412609 
C    -2.9636412    0.8490720   -1.4568929 
H    -1.5052199    0.1735167   -2.9159593 
H    -3.1494626    0.7964504   -0.3648844 
H    -3.8306763    0.4010992   -1.9830870 
H    -2.9153762    1.9196196   -1.7473294 
H    -0.4890809    1.6676111   -1.4490029 
C     2.0149819    1.7127025    2.8826613 
C     1.8198580    1.4146682    1.3935707 
H     1.9836871    2.8026383    3.0846145 
H     2.9962822    1.3372987    3.2427215 
H     1.2300234    1.2405142    3.5082620 
H     2.5633584    1.9785712    0.7906090 
H     0.8158386    1.7652998    1.0618877 
C     1.9556673   -0.0684967    0.9954048 
O     1.9723882   -0.2029090   -0.4220292 
C     0.8801891   -0.9551758    1.6359007 
H     2.9554640   -0.4246684    1.3360628 
H    -0.1298851   -0.6068864    1.3345087 
H     0.9326562   -0.9389474    2.7437030 
H     0.9988976   -2.0049852    1.3022041 
H     1.0930552    0.1122686   -0.7453203 
