30
-467.05431223756
C    -0.4781669    0.0329578   -2.4263943 
C    -1.9163463   -0.4322365   -2.1819826 
H    -0.1536580   -0.1896863   -3.4624052 
H     0.2332959   -0.4470926   -1.7253085 
H    -0.3913684    1.1299880   -2.2789813 
H    -2.0361998   -1.5033415   -2.4693275 
H    -2.6182192    0.1292127   -2.8368717 
C    -2.3891521   -0.2803937   -0.7286910 
O    -1.6632491   -1.1544728    0.1625711 
C    -3.8922282   -0.5019066   -0.5615204 
H    -2.1273118    0.7390883   -0.3704019 
H    -4.1861805   -1.5078640   -0.9326150 
H    -4.4748836    0.2468853   -1.1349039 
H    -4.1796374   -0.4286161    0.5054694 
H    -1.8676991   -2.0731067   -0.1025713 
C     3.7834593    0.8585610    2.1242725 
C     3.0654870    0.0340333    1.0540074 
H     4.8738727    0.9058591    1.9301228 
H     3.6453087    0.4192551    3.1349792 
H     3.4131416    1.9038596    2.1647477 
H     3.5139554   -0.9798352    0.9865468 
H     3.1977444    0.4943784    0.0498352 
C     1.5633453   -0.1623259    1.2933212 
O     1.1141144   -1.1084758    0.3313159 
C     0.7606111    1.1412112    1.2166219 
H     1.4389447   -0.5803576    2.3282376 
H     0.8789111    1.6106102    0.2177382 
H     1.0848883    1.8707864    1.9863381 
H    -0.3179955    0.9415901    1.3818668 
H     0.1252159   -1.1085653    0.3439828 
