30
-467.05344925899
C    -3.1198508   -2.5082199   -1.4288843 
C    -2.5491624   -1.6321589   -0.3103395 
H    -4.2241318   -2.5709794   -1.3630752 
H    -2.7233732   -3.5439531   -1.3755852 
H    -2.8712363   -2.1070335   -2.4319576 
H    -2.9118868   -2.0109629    0.6726617 
H    -2.9248400   -0.5893066   -0.3969796 
C    -1.0154762   -1.5805164   -0.2637676 
O    -0.5871835   -0.7870744    0.8638523 
C    -0.3723224   -0.9568039   -1.4958341 
H    -0.6271152   -2.6229832   -0.1474192 
H    -0.7852974    0.0564438   -1.6784453 
H    -0.5524908   -1.5777050   -2.3943204 
H     0.7201228   -0.8599739   -1.3440907 
H    -0.9438272   -1.1929348    1.6763861 
C     1.6493362    2.3462961   -1.1188272 
C     1.2585796    2.2279365    0.3552798 
H     0.9327946    2.9741211   -1.6865549 
H     1.6841916    1.3465791   -1.5940909 
H     2.6566311    2.7995685   -1.2320820 
H     0.2139341    1.8545731    0.4483845 
H     1.2751413    3.2312797    0.8357629 
C     2.1653545    1.2725938    1.1555486 
O     2.1056255   -0.0592393    0.6559626 
C     1.8508680    1.3129941    2.6567325 
H     3.2229671    1.5936023    1.0093795 
H     0.7877845    1.0441779    2.8369499 
H     2.0194290    2.3215420    3.0878982 
H     2.4869634    0.5868233    3.2007079 
H     1.1784707   -0.3686860    0.8067473 
