30
-467.05362846874
C    -1.0066570   -0.2671855   -3.3309341 
C    -0.8333294    0.6821408   -2.1405702 
H    -0.3656722    0.0431047   -4.1795027 
H    -2.0515953   -0.3040684   -3.7021067 
H    -0.7002256   -1.3033850   -3.0714410 
H    -1.1425772    1.7110573   -2.4254640 
H     0.2389724    0.7305124   -1.8581254 
C    -1.6105216    0.2791687   -0.8742293 
O    -1.1451421   -0.9881359   -0.3543504 
C    -3.1301258    0.2552333   -1.0374399 
H    -1.3486335    1.0008837   -0.0724475 
H    -3.4452372   -0.4844184   -1.8036687 
H    -3.5106642    1.2468792   -1.3558769 
H    -3.6175398   -0.0165810   -0.0808035 
H    -1.3768842   -1.6749042   -1.0099419 
C     1.6837440    1.2720840    3.0565134 
C     1.1858008    0.7894591    1.6910433 
H     1.0855466    2.1300701    3.4248185 
H     2.7423886    1.6039227    3.0044578 
H     1.6236084    0.4758438    3.8263403 
H     1.1693632    1.6374460    0.9729920 
H     0.1354838    0.4285706    1.7758149 
C     2.0250002   -0.3311766    1.0466322 
O     1.6078934   -0.5773499   -0.2907985 
C     2.0191641   -1.6278814    1.8665892 
H     3.0763521    0.0309676    0.9675616 
H     0.9787234   -1.9969832    1.9938088 
H     2.4592147   -1.4914758    2.8756199 
H     2.5989653   -2.4102818    1.3384147 
H     0.6545838   -0.8435169   -0.2529059 
