45
-700.60559406143
C    -2.3245371   -2.2948641   -2.7366600 
C    -1.6403695   -1.4954349   -1.6246058 
H    -1.9649448   -1.9772358   -3.7358059 
H    -3.4254027   -2.1498745   -2.7191230 
H    -2.1309055   -3.3833501   -2.6484076 
H    -1.7674421   -0.4076479   -1.8096009 
H    -0.5430123   -1.6811242   -1.6426879 
C    -2.1591613   -1.7941021   -0.2067212 
O    -1.6019924   -0.8769245    0.7455683 
C    -1.9074095   -3.2337975    0.2454485 
H    -3.2551627   -1.5986851   -0.1879796 
H    -0.8219463   -3.4682863    0.2065879 
H    -2.4365971   -3.9667616   -0.3957250 
H    -2.2525501   -3.3715898    1.2886768 
H    -0.6076179   -1.0050895    0.7587372 
C     2.1225810    0.8536357   -2.0677285 
C     2.8812211    0.0081399   -1.0388933 
H     2.7750625    1.6336373   -2.5086446 
H     1.2443831    1.3636803   -1.6228701 
H     1.7471969    0.2213357   -2.8996099 
H     3.3198024    0.6542970   -0.2459714 
H     3.7355296   -0.5043035   -1.5321162 
C     2.0146570   -1.0556178   -0.3506336 
O     1.0374546   -0.4555268    0.5060934 
C     2.8255710   -2.0224767    0.5058309 
H     1.4958788   -1.6416390   -1.1542710 
H     3.3779328   -1.4680160    1.2917188 
H     3.5539479   -2.5864114   -0.1101511 
H     2.1568656   -2.7494058    1.0082680 
H     0.6297652    0.3597495    0.0898185 
C    -0.6271562    2.9943708    3.3864280 
C    -0.5239633    1.9601420    2.2628758 
H    -0.5719407    2.5085378    4.3810630 
H    -1.5888488    3.5483378    3.3412751 
H     0.1900933    3.7428579    3.3409985 
H    -1.2910164    1.1693644    2.4111087 
H     0.4569928    1.4374861    2.2960706 
C    -0.7122768    2.5353739    0.8483005 
O    -0.6946625    1.4849844   -0.1320610 
C     0.3608364    3.5417924    0.4465038 
H    -1.7080117    3.0437032    0.8063877 
H     1.3691788    3.0839269    0.5224083 
H     0.3364440    4.4386615    1.0955741 
H     0.2067940    3.8692327   -0.6004566 
H    -1.2812608    0.7349176    0.1849818 
