45
-700.60549434880
C    -3.5535646    0.0685242    1.0883245 
C    -3.2382796   -1.4053852    0.8186463 
H    -4.5914497    0.1984509    1.4550295 
H    -3.4474151    0.6723134    0.1654666 
H    -2.8678925    0.4990108    1.8475683 
H    -3.8868058   -1.7900089    0.0007860 
H    -3.4680135   -2.0178525    1.7169083 
C    -1.7793154   -1.6661139    0.4336586 
O    -1.4802793   -0.8673653   -0.7208866 
C    -1.4979261   -3.1422865    0.1532494 
H    -1.1341587   -1.3349545    1.2876905 
H    -2.1156629   -3.4963387   -0.6970788 
H    -1.7247245   -3.7689020    1.0397651 
H    -0.4314546   -3.2992273   -0.1081069 
H    -0.5031866   -0.9716112   -0.9259097 
C     3.3745710   -3.1546927    0.5214602 
C     2.5957213   -2.2959213   -0.4767282 
H     3.7351866   -4.0894886    0.0479679 
H     2.7418905   -3.4430851    1.3873630 
H     4.2634882   -2.6255178    0.9214843 
H     1.7636474   -2.8875732   -0.9160624 
H     3.2413908   -1.9999666   -1.3322137 
C     1.9855349   -1.0238403    0.1203094 
O     1.1559478   -0.4435107   -0.8938596 
C     3.0218154   -0.0053404    0.5974331 
H     1.3565325   -1.3218504    0.9989934 
H     3.6741315    0.3015004   -0.2460521 
H     3.6591971   -0.4176572    1.4051338 
H     2.5190305    0.8993344    0.9956575 
H     0.7850787    0.4190925   -0.5369759 
C     0.2970055    4.1581511    0.8707067 
C     0.2933843    3.6769873   -0.5819244 
H     1.0785927    4.9249013    1.0438970 
H     0.4808782    3.3113212    1.5602439 
H    -0.6809344    4.6049988    1.1475637 
H     1.2964996    3.2806358   -0.8576269 
H     0.0941692    4.5254349   -1.2713749 
C    -0.7387185    2.5812396   -0.8597159 
O    -0.4462181    1.4803620    0.0157170 
C    -0.7501092    2.1296089   -2.3220582 
H    -1.7502290    2.9798446   -0.5960925 
H     0.2459152    1.7382229   -2.6159804 
H    -1.0086625    2.9701279   -2.9977635 
H    -1.4920627    1.3207218   -2.4784219 
H    -1.0725456    0.7277058   -0.2061913 
