45
-700.60500452899
C    -4.3944973   -2.7288217    0.1502016 
C    -3.3335049   -1.7681376   -0.3909353 
H    -5.4057501   -2.4479520   -0.2057955 
H    -4.4193923   -2.7221452    1.2603111 
H    -4.2122532   -3.7744774   -0.1716647 
H    -3.5992215   -0.7228324   -0.1234504 
H    -3.3023006   -1.8029334   -1.5021905 
C    -1.9163490   -2.0264260    0.1305716 
O    -1.0916561   -0.9628638   -0.3630509 
C    -1.3373556   -3.3772071   -0.2920946 
H    -1.9426027   -1.9866966    1.2488363 
H    -1.3187954   -3.4603530   -1.3984986 
H    -1.9305845   -4.2205552    0.1148605 
H    -0.2995552   -3.4871645    0.0830338 
H    -0.1480684   -1.1228316   -0.0570137 
C     1.9057183   -0.7618004   -2.1765903 
C     2.7209322   -0.0480918   -1.0958314 
H     2.0036088   -0.2532099   -3.1566987 
H     0.8284487   -0.7944942   -1.9213141 
H     2.2484466   -1.8097192   -2.3079265 
H     2.3925348    1.0119758   -1.0026754 
H     3.7915971   -0.0046093   -1.3930280 
C     2.6371557   -0.7005252    0.2942542 
O     1.2926420   -0.7756835    0.7808919 
C     3.5240473    0.0066453    1.3214967 
H     2.9667385   -1.7602157    0.2013001 
H     3.2227948    1.0707157    1.4273744 
H     4.5911058   -0.0148880    1.0206250 
H     3.4266091   -0.4767756    2.3130776 
H     0.9320380    0.1493147    0.9209632 
C     0.6782647    3.6638124    2.1389835 
C     0.6485190    3.4082549    0.6306866 
H     1.5404247    4.2983727    2.4267981 
H     0.7476919    2.7093350    2.6963069 
H    -0.2462029    4.1777285    2.4761785 
H     1.6028838    2.9358401    0.3041122 
H     0.5730551    4.3681717    0.0757314 
C    -0.5041864    2.5038490    0.1835323 
O    -0.4071836    1.2766280    0.9150646 
C    -0.5117631    2.2611675   -1.3268616 
H    -1.4641021    3.0064676    0.4659650 
H     0.4474932    1.8163173   -1.6600804 
H    -0.6628056    3.2109995   -1.8788486 
H    -1.3218824    1.5610486   -1.6126706 
H    -0.9527374    0.5747660    0.4560625 
