60
-934.16412224032
C    -3.3423813   -0.0611323    1.8441418 
C    -2.9697154   -1.5414209    1.7198237 
H    -4.4422475    0.0767681    1.8507791 
H    -2.9320749    0.5387340    1.0079796 
H    -2.9433608    0.3725301    2.7844289 
H    -3.4178669   -1.9792130    0.8000587 
H    -3.3967880   -2.1125112    2.5720269 
C    -1.4623778   -1.8079837    1.6828197 
O    -0.9145632   -1.1841498    0.5139515 
C    -1.1227101   -3.2991159    1.6792875 
H    -1.0057189   -1.3380282    2.5890911 
H    -1.5735825   -3.7954007    0.7955652 
H    -1.4999051   -3.7986713    2.5949663 
H    -0.0248112   -3.4466014    1.6373251 
H     0.1004812   -1.2391026    0.5477420 
C    -3.0836847   -0.6077200   -2.1709074 
C    -2.6041140    0.7979880   -2.5389693 
H    -4.1200381   -0.7860959   -2.5213363 
H    -3.0649185   -0.7714680   -1.0767027 
H    -2.4334790   -1.3841878   -2.6246127 
H    -3.2837424    1.5667896   -2.1095430 
H    -2.6408769    0.9277754   -3.6428916 
C    -1.1781593    1.1202317   -2.0723913 
O    -1.0995286    1.1764336   -0.6358733 
C    -0.6782288    2.4634182   -2.5963312 
H    -0.4980414    0.3142596   -2.4425430 
H    -1.3281474    3.2835626   -2.2279695 
H    -0.6818465    2.4841176   -3.7039041 
H     0.3555359    2.6513262   -2.2453277 
H    -1.1872563    0.2547298   -0.2334946 
C     0.9182825   -2.2618370   -2.1427744 
C     2.1906823   -1.4930528   -1.7757263 
H     0.6299311   -2.0853773   -3.1987509 
H     0.0622557   -1.9702709   -1.5033355 
H     1.0634193   -3.3555262   -2.0163891 
H     2.0652540   -0.4060488   -1.9793073 
H     3.0309264   -1.8308388   -2.4210359 
C     2.6169453   -1.6422576   -0.3043291 
O     1.6845229   -1.0090169    0.5859526 
C     4.0225512   -1.0938200   -0.0492213 
H     2.5943803   -2.7226267   -0.0342333 
H     4.0777375   -0.0249979   -0.3429356 
H     4.7851693   -1.6483669   -0.6326263 
H     4.2769449   -1.1716444    1.0260892 
H     1.6920969   -0.0138304    0.3827720 
C     0.0251272    1.6619935    2.6237477 
C     1.4704871    2.0834342    2.3532926 
H    -0.1157120    1.3580717    3.6802943 
H    -0.2665697    0.8042430    1.9886477 
H    -0.6872841    2.4855400    2.4097611 
H     2.1560674    1.2308278    2.5562247 
H     1.7683532    2.8994973    3.0474833 
C     1.7225250    2.5626101    0.9139017 
O     1.4270299    1.5317068   -0.0416000 
C     3.1681469    2.9993386    0.6944273 
H     1.0470226    3.4272579    0.7067684 
H     3.8601345    2.1560481    0.8977966 
H     3.4397461    3.8358657    1.3687136 
H     3.3213557    3.3250397   -0.3529368 
H     0.4266193    1.4921764   -0.2178605 
