60
-934.16019856596
C    -1.6770993   -1.4433784   -3.6699749 
C    -1.0142235   -1.2682153   -2.3018271 
H    -1.2059317   -0.7860013   -4.4277594 
H    -2.7565331   -1.1842465   -3.6311226 
H    -1.5985149   -2.4849276   -4.0431856 
H    -1.0400240   -0.1982926   -2.0104174 
H     0.0624556   -1.5417244   -2.3515519 
C    -1.6666732   -2.0751527   -1.1667081 
O    -1.1379329   -1.6776520    0.1072303 
C    -1.5246653   -3.5892837   -1.3323735 
H    -2.7519065   -1.8205707   -1.1309632 
H    -0.4519990   -3.8699593   -1.3882349 
H    -2.0239109   -3.9512471   -2.2537295 
H    -1.9741898   -4.1112942   -0.4651677 
H    -0.1256768   -1.6578180    0.0321203 
C    -2.1656212    2.3880498   -1.5847608 
C    -3.0877312    1.5461414   -0.6996444 
H    -2.5100845    2.3939368   -2.6382106 
H    -1.1253875    2.0062545   -1.5685304 
H    -2.1321484    3.4418108   -1.2366348 
H    -3.1855634    0.5171093   -1.1128814 
H    -4.1147083    1.9724305   -0.7071751 
C    -2.6224832    1.4349004    0.7624821 
O    -1.3282871    0.8321760    0.8706871 
C    -3.6200918    0.6735577    1.6374310 
H    -2.4999624    2.4662981    1.1661110 
H    -3.7542617   -0.3615035    1.2589172 
H    -4.6126308    1.1677360    1.6452288 
H    -3.2487836    0.6095938    2.6788290 
H    -1.3811274   -0.1463267    0.5958009 
C     1.9803706   -1.0535282    3.7389277 
C     1.2705727   -1.0092181    2.3837485 
H     1.3549913   -0.5982574    4.5326415 
H     2.9401411   -0.4951245    3.7105077 
H     2.2099700   -2.0913126    4.0561246 
H     0.9750642    0.0354793    2.1514473 
H     0.3187523   -1.5828712    2.4219903 
C     2.1132279   -1.5392700    1.2094167 
O     1.4644868   -1.2800620   -0.0461361 
C     2.3716268   -3.0408629    1.2753840 
H     3.0945886   -1.0055832    1.2141701 
H     1.4094394   -3.5943064    1.2755379 
H     2.9314302   -3.3164258    2.1903377 
H     2.9589651   -3.3679035    0.3952841 
H     1.3721088   -0.2780352   -0.1645801 
C     3.8877871    1.2458384   -0.6301526 
C     3.0105530    2.4971489   -0.5425540 
H     4.7719226    1.4163471   -1.2764185 
H     3.3257904    0.3864339   -1.0462473 
H     4.2614465    0.9485394    0.3725602 
H     2.6890112    2.8116888   -1.5597252 
H     3.5947041    3.3426354   -0.1191573 
C     1.7482758    2.3160106    0.3056356 
O     0.9442410    1.3025771   -0.3105935 
C     0.9494104    3.6107637    0.4579348 
H     2.0580435    1.9708836    1.3262055 
H     0.6409809    3.9968014   -0.5350891 
H     1.5513366    4.3908818    0.9665343 
H     0.0359232    3.4377779    1.0617935 
H     0.0405358    1.2605526    0.1504872 
