60
-934.15943710310
C    -0.7231158   -2.9441073   -1.9932915 
C     0.4471780   -3.2170908   -1.0445375 
H    -0.4170750   -3.0571787   -3.0526862 
H    -1.1250338   -1.9208382   -1.8608313 
H    -1.5589032   -3.6523377   -1.8094336 
H     1.3017203   -2.5493564   -1.2914821 
H     0.8117695   -4.2586149   -1.1817860 
C     0.1146553   -3.0137602    0.4431906 
O    -0.1351736   -1.6296944    0.7441167 
C     1.2041897   -3.5585145    1.3690472 
H    -0.8422483   -3.5363793    0.6718444 
H     2.1849353   -3.0964237    1.1336531 
H     1.3111072   -4.6569870    1.2601303 
H     0.9595858   -3.3314570    2.4252183 
H     0.6385424   -1.0747745    0.3995275 
C    -3.9776845    1.7923698   -1.1829689 
C    -4.3131343    0.3585132   -0.7654574 
H    -4.7347040    2.1979454   -1.8836264 
H    -2.9919582    1.8401062   -1.6867500 
H    -3.9420343    2.4690830   -0.3028344 
H    -4.3622937   -0.2969983   -1.6626705 
H    -5.3175385    0.3227804   -0.2905911 
C    -3.3026639   -0.2527965    0.2099303 
O    -2.0150666   -0.2263189   -0.4122936 
C    -3.6647713   -1.6805119    0.6188812 
H    -3.2776714    0.3833288    1.1314111 
H    -3.7058652   -2.3407144   -0.2716378 
H    -4.6511925   -1.7111093    1.1241848 
H    -2.9089674   -2.0886214    1.3198347 
H    -1.3713486   -0.8416947    0.0770336 
C     5.0610835   -0.0620296    1.0480752 
C     3.6872409   -0.5253799    0.5586935 
H     5.5868393   -0.8747126    1.5878126 
H     4.9734926    0.7976039    1.7454787 
H     5.7162806    0.2541654    0.2111183 
H     3.0982318   -0.9221481    1.4127973 
H     3.7956841   -1.3655644   -0.1627067 
C     2.8441544    0.5678964   -0.1056959 
O     1.5704887    0.0006202   -0.4130866 
C     3.4701023    1.1501698   -1.3749376 
H     2.7169566    1.3958254    0.6379391 
H     3.6473483    0.3460764   -2.1185752 
H     4.4328546    1.6580565   -1.1644687 
H     2.7877531    1.8937817   -1.8336725 
H     0.9204505    0.7374019   -0.6667386 
C    -0.6694264    1.6295752    2.1567557 
C     0.0406092    2.7233180    1.3572733 
H    -0.3045592    1.5993077    3.2030075 
H    -0.5037163    0.6254526    1.7235427 
H    -1.7652555    1.8060736    2.1929219 
H     1.1329454    2.5141832    1.3132790 
H    -0.0600034    3.6980676    1.8833367 
C    -0.4737366    2.9180357   -0.0798519 
O    -0.3490948    1.7354870   -0.8800332 
C     0.2682508    4.0394300   -0.8028689 
H    -1.5567341    3.1830452   -0.0242121 
H     1.3510402    3.8040056   -0.8701348 
H     0.1602675    5.0037350   -0.2676007 
H    -0.1205213    4.1584632   -1.8327038 
H    -1.0942663    1.0822106   -0.6698696 
