60
-934.15902737072
C    -1.6745288   -2.8976197    2.8065553 
C    -1.1791665   -1.9416098    1.7192060 
H    -1.2138422   -2.6592283    3.7860412 
H    -1.4184506   -3.9512545    2.5668952 
H    -2.7743876   -2.8441385    2.9396658 
H    -0.0688701   -1.9603493    1.6816475 
H    -1.4668193   -0.8967604    1.9648698 
C    -1.6891746   -2.2593475    0.3040271 
O    -1.0390578   -1.4228355   -0.6635727 
C    -3.1932913   -2.0675815    0.1385345 
H    -1.4365474   -3.3247131    0.0752851 
H    -3.4693375   -1.0136890    0.3502566 
H    -3.7613827   -2.7238480    0.8264200 
H    -3.5046812   -2.3061483   -0.8974491 
H    -0.0395457   -1.4219002   -0.4778511 
C    -2.6373926    0.3083930   -3.0933827 
C    -2.6300666    1.6773212   -2.4062784 
H    -3.6042523    0.1135342   -3.5993958 
H    -2.4511163   -0.5128882   -2.3742980 
H    -1.8393514    0.2486862   -3.8632420 
H    -3.5040864    1.7827761   -1.7264743 
H    -2.7298122    2.4791159   -3.1703691 
C    -1.3691165    1.9547703   -1.5746847 
O    -1.3621827    1.1770634   -0.3656849 
C    -1.2448616    3.4168894   -1.1570013 
H    -0.4741194    1.6831863   -2.1891809 
H    -2.1215203    3.7196933   -0.5484306 
H    -1.1854993    4.0796831   -2.0426804 
H    -0.3301254    3.5663411   -0.5501034 
H    -1.3402836    0.1817373   -0.5621060 
C     3.4371497    0.8167031   -1.8035282 
C     3.5800373   -0.6798239   -1.5055211 
H     4.4188666    1.3308792   -1.7695794 
H     2.7627172    1.3155871   -1.0797784 
H     3.0127275    0.9770236   -2.8171628 
H     4.1075139   -0.8435273   -0.5397561 
H     4.2112961   -1.1560702   -2.2870591 
C     2.2452948   -1.4366878   -1.4415830 
O     1.5326716   -1.1649045   -0.2224507 
C     2.4172913   -2.9509820   -1.5116879 
H     1.6206586   -1.1098449   -2.3114508 
H     3.0514738   -3.3043292   -0.6730403 
H     2.8894088   -3.2548353   -2.4669342 
H     1.4332141   -3.4548761   -1.4361055 
H     1.5066116   -0.1797740    0.0072745 
C    -0.8720793    1.7560625    2.8809862 
C     0.5665431    1.2317187    2.9243971 
H    -1.4857296    1.3073354    3.6879009 
H    -1.3660096    1.5316425    1.9144378 
H    -0.8977596    2.8580526    3.0164215 
H     0.5793340    0.1223468    2.8521244 
H     1.0249656    1.4832965    3.9056682 
C     1.4812280    1.7874961    1.8228396 
O     1.1050262    1.3335831    0.5146788 
C     2.9394846    1.3845120    2.0283001 
H     1.4087545    2.9035468    1.8410472 
H     3.0345977    0.2790252    2.0152341 
H     3.3216846    1.7580894    2.9986725 
H     3.5779852    1.7950098    1.2217078 
H     0.1079114    1.3784656    0.3367281 
