75
-1167.71349221702
C    -0.5135171    0.8796563    5.0322141 
C    -1.5870787    0.1531356    4.2197184 
H     0.2400199    1.3349840    4.3596175 
H     0.0263131    0.1803495    5.7047160 
H    -0.9492529    1.6826354    5.6598532 
C    -1.0194424   -0.9211611    3.2788999 
H    -2.1557893    0.8799527    3.5976768 
H    -2.3289330   -0.3248351    4.8958412 
O    -0.0550966   -0.3366227    2.3935187 
C    -2.1129433   -1.6531661    2.4984323 
H    -0.4500859   -1.6609303    3.8875892 
H    -2.6928442   -0.9358754    1.8820649 
H    -2.8183347   -2.1694223    3.1812641 
H    -1.6692504   -2.4072433    1.8194368 
H    -0.5005606    0.4341419    1.8890855 
C     1.7604510   -3.9184460   -1.1816323 
C     2.7452583   -3.1934740   -0.2602503 
H     1.0343679   -3.2091495   -1.6243952 
H     1.1829109   -4.6865250   -0.6260527 
H     2.2887048   -4.4299410   -2.0111958 
C     2.0857865   -2.5048520    0.9389655 
H     3.3113252   -2.4251569   -0.8343658 
H     3.5060335   -3.9036910    0.1293404 
O     1.0926059   -1.6009261    0.4500024 
C     3.0910047   -1.7692049    1.8281661 
H     1.5772661   -3.2928629    1.5497472 
H     3.6531957   -1.0177682    1.2357760 
H     3.8190536   -2.4729265    2.2811414 
H     2.5643118   -1.2339250    2.6427971 
H     0.6245275   -1.1474879    1.2352183 
C    -2.3624075   -1.5879070   -1.1741066 
C    -3.0858814   -0.2475740   -1.3206451 
H    -1.4062266   -1.4874996   -0.6263138 
H    -2.1248971   -2.0271671   -2.1649694 
H    -2.9857792   -2.3184616   -0.6208676 
C    -2.3192190    0.8106843   -2.1322786 
H    -3.2998736    0.1861503   -0.3180370 
H    -4.0730313   -0.4053620   -1.8081853 
O    -1.0844363    1.1750010   -1.4974456 
C    -3.1361082    2.0845485   -2.3312859 
H    -2.0760171    0.3781211   -3.1327444 
H    -3.4084522    2.5251781   -1.3503099 
H    -4.0726990    1.8758587   -2.8855969 
H    -2.5505359    2.8357466   -2.8965803 
H    -0.3883016    0.4551218   -1.6792893 
C     1.8142966    2.1304502    1.2079574 
C     0.7494857    3.1069049    0.7038988 
H     1.5679727    1.0837532    0.9483428 
H     1.9167132    2.1791406    2.3118780 
H     2.8055686    2.3578539    0.7673532 
C    -0.6390820    2.9156490    1.3360117 
H     0.6350016    3.0153707   -0.3993021 
H     1.0728605    4.1532363    0.8966128 
O    -1.1625900    1.6037245    1.0806343 
C    -1.6374609    3.9784584    0.8736277 
H    -0.5348010    2.9757346    2.4437322 
H    -1.7409000    3.9563440   -0.2304554 
H    -1.3070305    4.9957334    1.1667381 
H    -2.6340728    3.7911413    1.3194642 
H    -1.1605488    1.4419108    0.0731296 
C     0.4586874   -0.8318801   -4.8329692 
C     1.3169964    0.1808488   -4.0722082 
H    -0.4098475   -1.1443193   -4.2206106 
H     1.0374367   -1.7475641   -5.0756562 
H     0.0781600   -0.4100131   -5.7846973 
C     1.8291152   -0.3423444   -2.7262314 
H     0.7329693    1.1070627   -3.8731629 
H     2.1918128    0.4868315   -4.6850621 
O     0.6839302   -0.6784224   -1.9365970 
C     2.7279217    0.6639661   -2.0069717 
H     2.4109686   -1.2792365   -2.9118007 
H     2.1828602    1.6135807   -1.8303840 
H     3.6343347    0.8879616   -2.6055979 
H     3.0527261    0.2702497   -1.0238545 
H     0.9503742   -1.0438282   -1.0283550 
