90
-1401.26195172432
C    -1.6940383   -2.5263452    0.4894378 
C    -1.6396289   -3.2215271   -0.8705762 
H    -1.1471476   -1.5636480    0.4764119 
H    -1.2391564   -3.1569288    1.2800711 
H    -2.7363384   -2.3063554    0.7923128 
C    -0.2179305   -3.5952235   -1.3206027 
H    -2.0856312   -2.5681272   -1.6530249 
H    -2.2535222   -4.1482690   -0.8525838 
O     0.6352094   -2.4441906   -1.3662851 
C    -0.2068276   -4.3063097   -2.6753471 
H     0.2332242   -4.2652422   -0.5529522 
H    -0.6483884   -3.6515284   -3.4546918 
H    -0.7938504   -5.2468914   -2.6431138 
H     0.8307745   -4.5506670   -2.9767065 
H     0.1715510   -1.7171869   -1.9134326 
C    -2.5644775    2.8038688   -3.4465689 
C    -3.2549433    1.5441983   -2.9191509 
H    -1.4850495    2.7912916   -3.1972667 
H    -2.9962967    3.7197083   -2.9910938 
H    -2.6634545    2.8950485   -4.5468392 
C    -3.0779657    1.3416640   -1.4114205 
H    -2.8573623    0.6402133   -3.4308815 
H    -4.3429169    1.5787878   -3.1412056 
O    -1.6759346    1.1941946   -1.1468248 
C    -3.8673665    0.1505286   -0.8680249 
H    -3.4309843    2.2690452   -0.8949240 
H    -3.5747644   -0.7813343   -1.3937162 
H    -4.9584257    0.2983466   -1.0023533 
H    -3.6610381    0.0188589    0.2120790 
H    -1.5411011    1.1661889   -0.1378426 
C     1.6345949    1.1925287   -1.6963479 
C     1.6986194    0.3964501   -3.0011487 
H     1.1783789    0.5947752   -0.8834448 
H     1.0330836    2.1165308   -1.8116797 
H     2.6455842    1.4855878   -1.3511105 
C     0.3221973    0.1086750   -3.6256441 
H     2.2137310   -0.5747727   -2.8271382 
H     2.3071875    0.9426863   -3.7546318 
O    -0.5482116   -0.5628159   -2.7018423 
C     0.4244280   -0.7549287   -4.8792073 
H    -0.1497815    1.0838243   -3.8921620 
H     0.8657562   -1.7413528   -4.6277016 
H     1.0670085   -0.2748417   -5.6439530 
H    -0.5779967   -0.9274236   -5.3175918 
H    -0.9510729    0.1139057   -2.0559061 
C     1.2525519    1.7923291    4.7551311 
C     0.4046961    0.5213513    4.6828866 
H     1.2614204    2.3133467    3.7780351 
H     2.3063624    1.5556081    5.0105559 
H     0.8690124    2.4974144    5.5196578 
C     0.8724198   -0.4663244    3.6111172 
H    -0.6598893    0.7744531    4.4777890 
H     0.4110848   -0.0021441    5.6628259 
O     0.7775610    0.1765972    2.3319055 
C     0.0858221   -1.7765509    3.6202924 
H     1.9505003   -0.6935093    3.7988397 
H    -0.9901907   -1.5808123    3.4348536 
H     0.1872407   -2.2993302    4.5932388 
H     0.4608738   -2.4453064    2.8213236 
H     1.2211145   -0.4272844    1.6436530 
C     0.5565688    3.4478702    1.0433050 
C    -0.9615093    3.5910508    1.1597091 
H     0.8323599    2.4409606    0.6775874 
H     1.0527141    3.5875659    2.0258310 
H     0.9833280    4.1919225    0.3416761 
C    -1.6202592    2.5090007    2.0326939 
H    -1.4237470    3.5426012    0.1495068 
H    -1.2215502    4.5877981    1.5784840 
O    -1.4487549    1.2020578    1.4603038 
C    -3.1141415    2.7507178    2.2359256 
H    -1.1218266    2.5134935    3.0303110 
H    -3.6437413    2.7636722    1.2606792 
H    -3.2969573    3.7228566    2.7359806 
H    -3.5560776    1.9452775    2.8544006 
H    -0.5909214    0.7866746    1.8144855 
C     3.9712535    0.6139156    1.4816771 
C     4.1295205   -0.9070245    1.3932368 
H     2.9263512    0.9018338    1.7070115 
H     4.2593733    1.0995529    0.5261630 
H     4.6162963    1.0373867    2.2777825 
C     3.2769909   -1.5802783    0.3128973 
H     3.8777189   -1.3822326    2.3682098 
H     5.1923007   -1.1630806    1.1935541 
O     1.8931624   -1.4695061    0.6722200 
C     3.6391270   -3.0530265    0.1111212 
H     3.4451988   -1.0372333   -0.6501330 
H     3.4981521   -3.6179567    1.0557162 
H     4.6939549   -3.1661976   -0.2126512 
H     2.9892407   -3.4999588   -0.6667402 
H     1.3355694   -1.8605489   -0.0864233 
