90
-1401.25847892523
C    -0.3557915    3.2188245    3.6942460 
C     0.6670147    2.0825596    3.6464548 
H    -1.2602460    2.9547498    3.1110471 
H     0.0569911    4.1520325    3.2564459 
H    -0.6685363    3.4435591    4.7336850 
C     1.1120279    1.7133230    2.2237011 
H     0.2506497    1.1683213    4.1245883 
H     1.5718933    2.3506598    4.2338549 
O    -0.0346211    1.4028645    1.4109935 
C     2.1255479    0.5694599    2.1945533 
H     1.5635586    2.6157414    1.7524964 
H     1.6842632   -0.3381849    2.6546812 
H     3.0418765    0.8356017    2.7603827 
H     2.4120301    0.3276010    1.1517420 
H    -0.4961412    0.5802175    1.8124929 
C     1.0537553    2.2577772   -3.8235455 
C    -0.3244013    2.4800856   -3.2001263 
H     1.5137767    1.3235432   -3.4487482 
H     1.7433069    3.0928938   -3.5821448 
H     0.9909359    2.1830699   -4.9274595 
C    -0.3171431    2.5821143   -1.6730539 
H    -1.0123193    1.6533619   -3.4873197 
H    -0.7812567    3.4106805   -3.5998362 
O     0.2168844    1.3550986   -1.1332329 
C    -1.7024141    2.8625549   -1.0928209 
H     0.3736635    3.4101766   -1.3812863 
H    -2.4157711    2.0662785   -1.3872753 
H    -2.0912227    3.8351738   -1.4556781 
H    -1.6583718    2.8891447    0.0129074 
H     0.1427264    1.3839143   -0.1001273 
C     1.3378382   -2.4500049    0.1618875 
C     0.5759308   -3.4422725    1.0381928 
H     0.8682937   -1.4489596    0.1725192 
H     1.3734660   -2.7802572   -0.8959927 
H     2.3824258   -2.3132559    0.4999495 
C    -0.8845486   -3.6544132    0.6108201 
H     0.5744564   -3.0983544    2.0968603 
H     1.0864380   -4.4303791    1.0318174 
O    -1.6386168   -2.4352789    0.6878998 
C    -1.6018550   -4.6890454    1.4728348 
H    -0.8932221   -4.0007373   -0.4517772 
H    -1.6115943   -4.3629020    2.5336710 
H    -1.0946966   -5.6729199    1.4214106 
H    -2.6515488   -4.8127362    1.1419933 
H    -1.4578934   -1.8372979   -0.1071576 
C    -3.5091370    0.6446658    1.3132258 
C    -3.5704425   -0.3904169    2.4384334 
H    -2.7360027    0.3825086    0.5657496 
H    -3.2776574    1.6574425    1.7042022 
H    -4.4768237    0.7064167    0.7753518 
C    -2.3070859   -0.4423374    3.3126263 
H    -3.7342281   -1.4012613    2.0049949 
H    -4.4368500   -0.1870972    3.1049729 
O    -1.1249202   -0.6631715    2.5278359 
C    -2.4022432   -1.4989549    4.4145566 
H    -2.1618070    0.5571018    3.7837626 
H    -2.5478962   -2.5062384    3.9717839 
H    -3.2557385   -1.2978718    5.0938214 
H    -1.4715862   -1.5176875    5.0149152 
H    -1.3061557   -1.4226505    1.8736197 
C     0.4282103   -1.5154746   -3.5913593 
C    -0.9332030   -2.1251417   -3.2526524 
H     0.9636065   -1.1435059   -2.6951685 
H     0.3180236   -0.6626581   -4.2933332 
H     1.0888871   -2.2596076   -4.0800544 
C    -1.9075809   -1.1559292   -2.5659072 
H    -0.8056247   -3.0070026   -2.5852857 
H    -1.4188440   -2.5065395   -4.1776542 
O    -1.4131581   -0.7370851   -1.2873138 
C    -3.2869277   -1.7687941   -2.3368508 
H    -2.0160541   -0.2512733   -3.2126892 
H    -3.2105952   -2.6379129   -1.6520402 
H    -3.7368444   -2.1103987   -3.2898517 
H    -3.9658270   -1.0305678   -1.8671957 
H    -0.7414023    0.0097631   -1.3596844 
C     3.4016494    2.9634690   -0.6932989 
C     4.3449523    1.7660195   -0.8232010 
H     3.7788414    3.7052960    0.0388062 
H     2.3952312    2.6448568   -0.3560601 
H     3.2743670    3.4852466   -1.6648673 
H     4.5119302    1.3020932    0.1735597 
H     5.3399572    2.1106995   -1.1811711 
C     3.8363684    0.6696914   -1.7771012 
O     2.6219174    0.0824871   -1.3225748 
C     4.8445699   -0.4663636   -1.9282317 
H     3.6789732    1.1383380   -2.7825685 
H     5.0268937   -0.9461764   -0.9445432 
H     5.8119720   -0.0973060   -2.3233760 
H     4.4515698   -1.2393984   -2.6170117 
H     1.8691758    0.7283429   -1.3477180 
