90
-1401.22135598942
C    -3.0667280    2.6411332   -4.4709966 
C    -3.5338009    1.5151928   -3.5448177 
H    -3.2114423    2.3740574   -5.5361805 
H    -1.9835425    2.8553500   -4.3481713 
H    -3.6249165    3.5821439   -4.2830238 
H    -2.9692258    0.5812227   -3.7595648 
H    -4.6029861    1.2859594   -3.7410338 
C    -3.3862461    1.8371019   -2.0525884 
O    -2.0081651    2.1089453   -1.7092446 
C    -3.8453624    0.7071605   -1.1430441 
H    -3.9803042    2.7543585   -1.8240838 
H    -3.2651163   -0.2173854   -1.3384163 
H    -4.9168593    0.4839628   -1.3099243 
H    -3.7048790    0.9821025   -0.0805306 
H    -1.6707619    2.8384756   -2.2639196 
C     0.3440588    0.7550581   -4.1974617 
C     0.7275606   -0.4928026   -3.4001920 
H     1.1022880    1.0000543   -4.9672440 
H     0.2509349    1.6376029   -3.5333676 
H    -0.6293650    0.6223346   -4.7144782 
H     1.7421604   -0.3819973   -2.9606892 
H     0.7691917   -1.3730968   -4.0762385 
C    -0.2383567   -0.8124315   -2.2514117 
O    -0.1743732    0.2317233   -1.2417749 
C     0.0538374   -2.1515640   -1.5892538 
H    -1.2805000   -0.8207795   -2.6524219 
H     1.0606214   -2.1671507   -1.1221781 
H     0.0024584   -2.9698610   -2.3346531 
H    -0.6935816   -2.3652786   -0.8003705 
H    -0.8887962    0.9109484   -1.4190916 
C    -1.2960463    1.9968798    1.7198224 
C    -0.0636721    1.7188372    2.5817116 
H    -2.0558607    2.5862284    2.2714452 
H    -1.7740122    1.0480529    1.4042677 
H    -1.0436044    2.5552016    0.7954651 
H    -0.3570687    1.1637600    3.4987808 
H     0.3898163    2.6751150    2.9219707 
C     1.0265241    0.9107967    1.8636247 
O     0.4751194   -0.3328760    1.3456849 
C     2.1935622    0.5507498    2.7740438 
H     1.4162908    1.4823649    0.9932163 
H     1.8423719   -0.1039059    3.5978814 
H     2.6397650    1.4637764    3.2160419 
H     2.9726921    0.0205494    2.1933351 
H     0.1218549   -0.1618733    0.4275923 
C    -2.6737807   -1.9145517    1.5187821 
C    -2.7402026   -2.2876889    3.0006745 
H    -3.2432602   -2.6264119    0.8877582 
H    -1.6274950   -1.9088020    1.1551097 
H    -3.0899610   -0.9007328    1.3428673 
H    -2.3721013   -3.3263398    3.1498025 
H    -3.7989349   -2.2736944    3.3420506 
C    -1.9175070   -1.3585178    3.9131717 
O    -0.5237027   -1.4437289    3.6513258 
C    -2.1137770   -1.6920361    5.3900820 
H    -2.2759973   -0.3085616    3.7393669 
H    -1.7834463   -2.7319277    5.5914532 
H    -3.1767830   -1.5961189    5.6888328 
H    -1.5050670   -1.0143543    6.0201878 
H    -0.3279298   -1.1213478    2.7343879 
C     0.5558967   -4.0565568    1.7789709 
C     2.0597417   -4.2928462    1.6384706 
H    -0.0125239   -5.0089916    1.7696317 
H     0.1825668   -3.4365555    0.9409663 
H     0.3109447   -3.5125006    2.7139709 
H     2.2820558   -4.8058798    0.6756060 
H     2.4136135   -4.9727888    2.4451697 
C     2.8965425   -3.0009766    1.6960183 
O     2.5347860   -2.0806733    0.6682025 
C     4.3902907   -3.2875697    1.5478562 
H     2.7213396   -2.5289942    2.6947199 
H     4.5931715   -3.7222713    0.5469091 
H     4.7450158   -4.0029524    2.3171594 
H     4.9763749   -2.3515421    1.6351723 
H     1.7834008   -1.5182199    0.9831129 
C     0.8027443    3.8150351   -1.4371484 
C     2.3270880    3.7072415   -1.3869724 
H     0.4403815    4.7816654   -1.0336254 
H     0.3310353    3.0093040   -0.8406877 
H     0.4364306    3.7303330   -2.4849769 
H     2.6795689    3.8544286   -0.3424355 
H     2.7823917    4.5207145   -1.9931164 
C     2.8720452    2.3540645   -1.8833461 
O     2.4324078    1.2701781   -1.0749198 
C     4.3985876    2.3234639   -1.8726147 
H     2.5236273    2.2118818   -2.9384805 
H     4.7711995    2.4559475   -0.8361842 
H     4.8245065    3.1273450   -2.5056973 
H     4.7647497    1.3456363   -2.2406961 
H     1.4844299    1.0506966   -1.2454052 
