90
-1401.23717117746
C    -3.3322106   -1.5654153   -3.1367585 
C    -3.6173717   -0.6873236   -1.9155695 
H    -4.2212854   -2.1610602   -3.4233565 
H    -2.5111222   -2.2838302   -2.9362673 
H    -3.0369073   -0.9551382   -4.0157821 
H    -3.9114491   -1.3171403   -1.0471859 
H    -4.4798997   -0.0178732   -2.1217632 
C    -2.4368738    0.1921019   -1.4933320 
O    -1.2940904   -0.6202463   -1.1429643 
C    -2.7360754    1.0710633   -0.2859298 
H    -2.1439065    0.8366279   -2.3575273 
H    -3.0704589    0.4524333    0.5713155 
H    -3.5376703    1.7969925   -0.5249797 
H    -1.8396241    1.6379739    0.0356482 
H    -1.0466815   -1.3092388   -1.8274191 
C    -0.9045164   -5.3378985   -0.9612515 
C    -0.8967674   -4.8594499   -2.4158778 
H    -1.7403898   -6.0417848   -0.7757672 
H    -1.0053266   -4.4946253   -0.2493510 
H     0.0387112   -5.8692380   -0.7129808 
H    -1.8671235   -4.3778407   -2.6707417 
H    -0.7993844   -5.7319514   -3.0984990 
C     0.2296098   -3.8694332   -2.7532403 
O     0.1000613   -2.6346666   -2.0342824 
C     0.2753308   -3.5234122   -4.2380856 
H     1.2024497   -4.3399262   -2.4664765 
H    -0.6724796   -3.0404141   -4.5536728 
H     0.4194874   -4.4339215   -4.8522624 
H     1.1065862   -2.8236534   -4.4523358 
H     0.1334310   -2.7768354   -1.0406979 
C    -1.5288491   -1.0483353    2.9536339 
C    -0.2349546   -1.8666249    2.9500023 
H    -2.0472985   -1.1265455    3.9302009 
H    -2.2331371   -1.4200272    2.1805103 
H    -1.3380799    0.0303538    2.7720441 
H    -0.4440372   -2.9273262    3.2130798 
H     0.4559362   -1.4777497    3.7297836 
C     0.5045177   -1.8491307    1.6071574 
O    -0.3341078   -2.4208179    0.5771484 
C     1.8033056   -2.6448506    1.6326249 
H     0.7316412   -0.7955749    1.3254877 
H     1.6054774   -3.7098407    1.8736827 
H     2.4956101   -2.2397640    2.3970459 
H     2.3116289   -2.5998746    0.6485821 
H    -0.9341405   -1.7097432    0.2349859 
C     0.8935595    0.5002632   -3.6615579 
C     2.1527894    0.7634839   -2.8326534 
H     0.9783923    0.9317585   -4.6787600 
H     0.0017361    0.9539631   -3.1856496 
H     0.7020082   -0.5868947   -3.7603125 
H     2.3141179    1.8583229   -2.7150207 
H     3.0450183    0.3715847   -3.3684676 
C     2.1210380    0.1265096   -1.4343340 
O     1.0152675    0.6193499   -0.6636746 
C     3.3905298    0.3991216   -0.6354604 
H     1.9830817   -0.9727707   -1.5584630 
H     3.5188488    1.4897290   -0.4742440 
H     4.2854995    0.0217919   -1.1687244 
H     3.3394876   -0.0878966    0.3575993 
H     0.1633225    0.1595668   -0.9157710 
C    -0.4568526    3.6565188   -1.9413923 
C    -0.4318157    4.4708412   -0.6472932 
H    -1.2874829    3.9641659   -2.6078458 
H    -0.5747796    2.5769873   -1.7258532 
H     0.4903445    3.7707416   -2.5093297 
H    -1.4204074    4.4219590   -0.1401559 
H    -0.2487113    5.5429463   -0.8787529 
C     0.6305583    3.9952848    0.3584843 
O     0.3493543    2.6649616    0.8026702 
C     0.7026658    4.8912412    1.5931882 
H     1.6239883    4.0051575   -0.1559229 
H    -0.2246123    4.7845360    2.1910990 
H     0.8312174    5.9546357    1.3091981 
H     1.5507136    4.5974950    2.2418633 
H     0.6970138    1.9740799    0.1644115 
C     2.5023999    1.5026059    3.0888710 
C     1.7718440    2.1599822    4.2641882 
H     3.5680064    1.8069622    3.0477630 
H     2.0361375    1.7749575    2.1221924 
H     2.4748017    0.3954718    3.1749009 
H     1.8256952    3.2688790    4.1849580 
H     2.2835113    1.8922294    5.2147919 
C     0.2919357    1.7582762    4.3909933 
O    -0.5305599    2.2614060    3.3483517 
C    -0.3211425    2.2388698    5.7057055 
H     0.2618914    0.6357844    4.3915093 
H    -0.2572631    3.3445720    5.7762184 
H     0.1953361    1.7950461    6.5807360 
H    -1.3920420    1.9582293    5.7482226 
H    -0.0640083    2.2782697    2.4731474 
