15
-233.51876462322
C    -1.8211674    0.3905805   -0.7376585 
C    -0.2917601    0.3638286   -0.7155436 
H    -2.2102740    1.0729111   -1.5195491 
H    -2.2116862    0.7214261    0.2448439 
H    -2.2363320   -0.6201450   -0.9332350 
H     0.1083315    1.4005421   -0.6155550 
H     0.1070842   -0.0186978   -1.6806645 
C     0.2853130   -0.4828234    0.4324743 
O    -0.2055338   -0.0488752    1.7036696 
C     1.8156743   -0.5258331    0.4150470 
H    -0.1041267   -1.5208793    0.3302796 
H     2.2367069    0.4998817    0.5011606 
H     2.2024956   -0.9657315   -0.5269390 
H     2.1954771   -1.1253742    1.2654811 
H     0.1297976    0.8591895    1.8361886 
