15
-233.51718675216
C     1.0715955    1.1083407   -0.6814971 
C    -0.3283225    0.5234413   -0.8962835 
H     1.3868323    1.7234727   -1.5476448 
H     1.8414725    0.3223580   -0.5387540 
H     1.0942924    1.7729688    0.2082644 
H    -0.3319374   -0.1337681   -1.7935250 
H    -1.0414738    1.3481501   -1.1074024 
C    -0.8853674   -0.2719975    0.3039995 
O    -1.0319051    0.5556197    1.4598807 
C    -0.0861073   -1.5396338    0.6265316 
H    -1.9246466   -0.5733381    0.0481712 
H     0.9584566   -1.2956773    0.9164460 
H    -0.0383101   -2.2253229   -0.2442571 
H    -0.5530665   -2.0797717    1.4733989 
H    -0.1315127    0.7651581    1.7726716 
