15
-233.51746864336
C     0.4071191    1.6471969    0.0735767 
C    -0.4173977    0.6205597   -0.7083897 
H     0.3278473    2.6570017   -0.3760267 
H     1.4827057    1.3794425    0.1009057 
H     0.0518884    1.7038935    1.1219334 
H    -0.0130684    0.4904009   -1.7365229 
H    -1.4543693    1.0050451   -0.8462580 
C    -0.5161073   -0.7650325   -0.0363913 
O    -1.0882581   -0.6716539    1.2714800 
C     0.8287217   -1.4675917    0.1272064 
H    -1.1605887   -1.4059335   -0.6907950 
H     1.4986395   -0.8863426    0.7915635 
H     1.3288599   -1.5990775   -0.8528730 
H     0.6828182   -2.4648695    0.5861649 
H    -1.9588103   -0.2430390    1.1744261 
