45
-700.60483683578
C    -2.0410545   -3.2424548   -1.8684205 
C    -1.8367823   -2.9745985   -0.3764502 
H    -1.9096978   -4.3155808   -2.1124657 
H    -1.3168820   -2.6568591   -2.4680004 
H    -3.0594700   -2.9439511   -2.1945120 
H    -0.8385411   -3.3464168   -0.0537237 
H    -2.5824796   -3.5372369    0.2269298 
C    -1.9330790   -1.4875437   -0.0044540 
O    -0.9966950   -0.7125599   -0.7702366 
C    -1.7629594   -1.2430198    1.4968302 
H    -2.9318626   -1.1104177   -0.3207395 
H    -0.7950173   -1.6523072    1.8545480 
H    -2.5700908   -1.7355833    2.0758753 
H    -1.7806058   -0.1585468    1.7239925 
H    -0.0675895   -0.9050882   -0.4445893 
C     2.1343199   -3.1394888    0.6660640 
C     2.9072495   -1.9475353    1.2347599 
H     2.7911358   -4.0215983    0.5276161 
H     1.6929724   -2.8893176   -0.3188613 
H     1.3064992   -3.4425377    1.3415614 
H     3.7366826   -1.6698788    0.5476678 
H     3.3766168   -2.2219336    2.2041512 
C     2.0435460   -0.7032211    1.4581275 
O     1.4765705   -0.3282298    0.1999841 
C     2.8314952    0.4644511    2.0534281 
H     1.2255787   -0.9755954    2.1750092 
H     3.6597994    0.7561488    1.3752811 
H     3.2616565    0.1980959    3.0403086 
H     2.1720827    1.3449750    2.1954142 
H     0.9993679    0.5480299    0.3169492 
C    -1.4869928    4.1798752   -2.3748804 
C    -1.5245720    3.1310794   -1.2601400 
H    -2.5039410    4.3879215   -2.7633445 
H    -0.8684306    3.8372647   -3.2310971 
H    -1.0655997    5.1439635   -2.0243059 
H    -2.0434548    2.2188880   -1.6287188 
H    -2.1174440    3.4983330   -0.3936642 
C    -0.1441359    2.6961710   -0.7432716 
O    -0.2988247    1.6501529    0.2269948 
C     0.6471527    3.8143984   -0.0741822 
H     0.4457269    2.3123664   -1.6138368 
H     0.0819392    4.2185823    0.7907136 
H     0.8542236    4.6425930   -0.7795635 
H     1.6184160    3.4312882    0.2968844 
H    -0.7868291    0.8869227   -0.2096331 
