60
-934.15640057781
C    -4.4424516   -1.3740152    0.8175607 
C    -2.9740001   -1.0061439    0.5887749 
H    -5.0162274   -1.3399531   -0.1301510 
H    -4.9284243   -0.6699341    1.5254672 
H    -4.5559067   -2.3955907    1.2339608 
H    -2.9109472   -0.0193446    0.0842449 
H    -2.5031958   -1.7367619   -0.1045549 
C    -2.1251713   -0.9254827    1.8702839 
O    -0.8381294   -0.3632885    1.6045961 
C    -1.9681184   -2.2702320    2.5839322 
H    -2.6190461   -0.2075171    2.5645564 
H    -1.4807633   -3.0093993    1.9138151 
H    -2.9451102   -2.6859624    2.9019654 
H    -1.3308744   -2.1514614    3.4815915 
H    -0.3175969   -0.9455710    0.9598362 
C    -3.1583207    2.8573711   -1.3024564 
C    -2.2060689    2.7677295   -0.1075767 
H    -4.1634540    3.2057356   -0.9914780 
H    -3.2859314    1.8675453   -1.7903208 
H    -2.7902460    3.5621461   -2.0755113 
H    -2.6516020    2.1145325    0.6739447 
H    -2.0716568    3.7628497    0.3694438 
C    -0.8159197    2.2051448   -0.4442973 
O    -0.0772396    1.9836767    0.7647501 
C     0.0158335    3.1228096   -1.3344728 
H    -0.9566939    1.2268686   -0.9713614 
H     0.1678193    4.1023205   -0.8360466 
H    -0.4803551    3.2988671   -2.3087684 
H     1.0101756    2.6767283   -1.5308528 
H    -0.4815866    1.1678125    1.2082946 
C     1.6538239   -0.1878854   -2.8798163 
C     1.2193948   -1.6296766   -2.6000248 
H     2.3692446   -0.1447413   -3.7255474 
H     2.1415275    0.2729655   -1.9984678 
H     0.7808882    0.4433113   -3.1506261 
H     2.1001991   -2.2613561   -2.3483652 
H     0.7773649   -2.0697954   -3.5205810 
C     0.1878500   -1.7886776   -1.4731572 
O     0.7393711   -1.5128229   -0.1794146 
C    -0.3763397   -3.2063396   -1.4170014 
H    -0.6530202   -1.0745156   -1.6749231 
H     0.4438262   -3.9379751   -1.2691773 
H    -0.9147447   -3.4598465   -2.3517235 
H    -1.0828482   -3.3162258   -0.5705052 
H     1.3388263   -0.6956054   -0.1684671 
C     3.8700698   -1.6306935    1.1531855 
C     4.2186810   -0.1407250    1.0909788 
H     4.7463248   -2.2614449    0.9013305 
H     3.0472369   -1.8893065    0.4589327 
H     3.5337745   -1.9168014    2.1719217 
H     4.6530160    0.1192043    0.1002178 
H     5.0009747    0.0949879    1.8445477 
C     3.0306133    0.7951827    1.3305131 
O     2.1388060    0.6964776    0.2067313 
C     3.4494992    2.2544091    1.5156938 
H     2.4916799    0.4555592    2.2501842 
H     4.0144242    2.6082663    0.6287042 
H     4.0896032    2.3774291    2.4129745 
H     2.5556982    2.8985943    1.6374400 
H     1.3354438    1.2865673    0.4052720 
