75
-1167.70771988976
C    -3.2776675   -1.3525205   -2.7006982 
C    -3.7756777   -0.0394540   -2.0915676 
H    -2.2162287   -1.5396458   -2.4443313 
H    -3.3530056   -1.3337399   -3.8084480 
H    -3.8727820   -2.2160581   -2.3411861 
C    -2.9550069    1.1927848   -2.5067324 
H    -3.7668076   -0.0998834   -0.9814343 
H    -4.8357082    0.1340580   -2.3799433 
O    -1.5963786    1.1015717   -2.0546889 
C    -3.5742125    2.5010369   -2.0115217 
H    -2.8930388    1.2156975   -3.6186017 
H    -3.6385864    2.4986530   -0.9033786 
H    -4.5972001    2.6418695   -2.4149447 
H    -2.9538467    3.3653504   -2.3204427 
H    -1.5683098    1.2864640   -1.0585755 
C    -1.4308882    2.0495099    3.4397054 
C    -0.2040520    2.2132306    2.5408566 
H    -2.0534054    1.1955192    3.1085259 
H    -2.0721421    2.9553363    3.4154880 
H    -1.1384956    1.8718426    4.4940817 
C    -0.5375303    2.4531110    1.0615945 
H     0.4394468    1.3079137    2.6055162 
H     0.4250960    3.0581715    2.8956587 
O    -1.3629260    1.3856266    0.5579260 
C     0.7139540    2.6243149    0.1988387 
H    -1.1708031    3.3652775    0.9816544 
H     1.3421631    1.7103700    0.2352200 
H     1.3275884    3.4781424    0.5512148 
H     0.4392344    2.8091560   -0.8575148 
H    -0.8812060    0.5141436    0.7205321 
C    -3.0101575   -1.4034641    1.4751944 
C    -2.0131681   -2.3961919    0.8721428 
H    -2.7850090   -0.3605288    1.1789124 
H    -2.9923652   -1.4448964    2.5848078 
H    -4.0457923   -1.6298534    1.1513660 
C    -0.5502182   -2.1492746    1.2677111 
H    -2.0761396   -2.3895246   -0.2376649 
H    -2.2790841   -3.4290124    1.1856863 
O    -0.0453660   -0.9212887    0.6968271 
C     0.3654160   -3.3143118    0.8954018 
H    -0.5050827   -1.9881529    2.3686027 
H     0.2939139   -3.5329140   -0.1885806 
H     0.0839829   -4.2307304    1.4516338 
H     1.4212941   -3.0718077    1.1264380 
H     0.0430645   -1.0190932   -0.3240799 
C     1.3881016    1.4450981   -3.4067324 
C     2.0454795    0.2532433   -2.7056648 
H     0.3913878    1.6759723   -2.9809960 
H     1.2455776    1.2439327   -4.4901613 
H     2.0154192    2.3552438   -3.3185357 
C     1.2212768   -1.0427920   -2.7291867 
H     2.2747766    0.4771974   -1.6417794 
H     3.0239959    0.0349879   -3.1871278 
O     0.0462600   -0.9624102   -1.8935897 
C     2.0382502   -2.2367873   -2.2460410 
H     0.8739051   -1.2331911   -3.7738869 
H     2.4349303   -2.0376100   -1.2298771 
H     2.8971744   -2.4154735   -2.9225359 
H     1.4192525   -3.1554574   -2.2251317 
H    -0.5482613   -0.1829737   -2.1371519 
C     2.2410002   -0.9362978    3.6403170 
C     3.5481723   -0.6850835    2.8856688 
H     2.3808778   -1.6457017    4.4803912 
H     1.4638532   -1.3622331    2.9752052 
H     1.8324675    0.0059463    4.0617412 
H     3.9827014   -1.6462592    2.5322922 
H     4.2943992   -0.2364413    3.5773663 
C     3.3973285    0.2374978    1.6634261 
O     2.6303735   -0.3678704    0.6263714 
C     4.7450587    0.6082907    1.0509746 
H     2.8943121    1.1791775    2.0052385 
H     5.2661391   -0.3052762    0.6976080 
H     5.3944123    1.1214280    1.7878081 
H     4.6016855    1.2770469    0.1798549 
H     1.6928267   -0.5300093    0.9069329 
