75
-1167.69687783292
C     1.4062580   -0.0513836   -3.2694428 
C     1.1661217   -1.3063119   -2.4261276 
H     2.4797997    0.2249072   -3.2750243 
H     0.8468679    0.8242617   -2.8813599 
H     1.0976703   -0.2069262   -4.3253849 
H     1.5186729   -1.1709196   -1.3807592 
H     1.7564925   -2.1530258   -2.8398875 
C    -0.2991457   -1.7544910   -2.3598362 
O    -1.1339396   -0.7619100   -1.7245738 
C    -0.4696591   -3.0399212   -1.5595435 
H    -0.6853327   -1.9015306   -3.3981590 
H    -0.0529914   -2.8951611   -0.5425404 
H     0.0733080   -3.8758756   -2.0429685 
H    -1.5399900   -3.3162509   -1.4852504 
H    -1.0396566    0.1346090   -2.1451408 
C    -3.9369085    1.2695476   -2.1380806 
C    -3.4004755    2.5603293   -1.5140542 
H    -4.9476732    1.0274511   -1.7530379 
H    -3.2757425    0.4072159   -1.9226934 
H    -4.0130802    1.3611191   -3.2419578 
H    -3.3666010    2.4638543   -0.4041849 
H    -4.0955232    3.4035168   -1.7194036 
C    -1.9990669    2.9650889   -2.0003321 
O    -1.0386039    1.9298657   -1.7492905 
C    -1.5253985    4.2819918   -1.3816633 
H    -2.0234995    3.0726502   -3.1079187 
H    -1.5010531    4.2051382   -0.2738107 
H    -2.1996299    5.1212152   -1.6482301 
H    -0.5032599    4.5269471   -1.7302212 
H    -1.1025902    1.6739354   -0.7868254 
C    -2.9861513   -1.8786359    2.8038732 
C    -1.9074268   -1.3359366    1.8644767 
H    -2.8308446   -2.9583129    2.9987675 
H    -4.0019108   -1.7620736    2.3698999 
H    -2.9809092   -1.3641375    3.7862772 
H    -1.8737428   -1.9525211    0.9411815 
H    -0.8973997   -1.4274596    2.3172221 
C    -2.1126273    0.1227634    1.4321470 
O    -1.0496578    0.5026720    0.5309612 
C    -2.1052143    1.1282244    2.5778057 
H    -3.0813874    0.2009041    0.8812381 
H    -1.1472536    1.0687424    3.1333992 
H    -2.9386868    0.9391468    3.2813323 
H    -2.2149236    2.1603557    2.1883722 
H    -0.9864147   -0.1862891   -0.2163803 
C     3.2621301    2.6412869   -0.8215822 
C     2.2635168    1.6652399   -0.1957761 
H     3.4110740    2.4184978   -1.8969691 
H     4.2550466    2.5815690   -0.3275143 
H     2.9167326    3.6929915   -0.7508846 
H     2.5979343    0.6213224   -0.3704922 
H     1.2786559    1.7665539   -0.7012259 
C     2.0552713    1.8350091    1.3180301 
O     1.2642000    0.7605239    1.8440879 
C     1.4254087    3.1783103    1.6946150 
H     3.0432375    1.7471683    1.8250326 
H     0.4485489    3.3018014    1.1810480 
H     2.0708720    4.0317580    1.4054036 
H     1.2516362    3.2288191    2.7872791 
H     0.3913026    0.7497883    1.3497537 
C     0.9369985   -4.4815595    1.9571821 
C     2.2515076   -4.0028039    1.3372355 
H     0.7553112   -5.5559903    1.7522265 
H     0.0814982   -3.9043554    1.5553776 
H     0.9403871   -4.3440157    3.0590915 
H     2.2414035   -4.1776493    0.2381150 
H     3.1037775   -4.5918612    1.7399294 
C     2.5319509   -2.5142989    1.5737503 
O     1.4739048   -1.7701397    0.9838245 
C     3.8907389   -2.0821213    1.0095898 
H     2.5411490   -2.3411268    2.6808254 
H     3.9214010   -2.2510482   -0.0868471 
H     4.7259695   -2.6460782    1.4748545 
H     4.0660994   -1.0026457    1.1943602 
H     1.5215160   -0.8323248    1.3268090 
