90
-1401.25032536621
C    -2.8030231   -2.3085712    0.3292066 
C    -2.2557104   -2.4249725    1.7526725 
H    -3.1184537   -3.2936457   -0.0675825 
H    -2.0405622   -1.9032624   -0.3636999 
H    -3.6827680   -1.6337438    0.2899364 
H    -1.4435395   -3.1842167    1.7884740 
H    -3.0502766   -2.7902844    2.4389402 
C    -1.6950480   -1.1084316    2.3144530 
O    -0.5783494   -0.6552572    1.5288292 
C    -1.2352578   -1.2331579    3.7642714 
H    -2.4942841   -0.3310613    2.2547860 
H    -0.4231025   -1.9833593    3.8458283 
H    -2.0687857   -1.5506773    4.4222388 
H    -0.8429444   -0.2646675    4.1304189 
H    -0.8873913    0.0195576    0.8543326 
C     1.9360102   -3.1960701    2.2585941 
C     2.5844617   -3.2240523    0.8736792 
H     2.3329308   -4.0017708    2.9078565 
H     0.8395325   -3.3376008    2.1827464 
H     2.1138074   -2.2276949    2.7682775 
H     2.3855809   -4.2013733    0.3803190 
H     3.6890446   -3.1397935    0.9707267 
C     2.1081089   -2.1076568   -0.0664683 
O     0.6773835   -2.1599304   -0.2289466 
C     2.7371189   -2.2217153   -1.4517712 
H     2.3679727   -1.1177891    0.3748102 
H     2.4276158   -3.1704149   -1.9370568 
H     3.8429751   -2.2132808   -1.3868600 
H     2.4248639   -1.3796045   -2.0999075 
H     0.2383347   -1.6749850    0.5427982 
C    -3.7923812    0.5096971   -1.9164477 
C    -3.5820173    1.3486524   -0.6554681 
H    -4.7990327    0.0467819   -1.9329477 
H    -3.0503737   -0.3101726   -1.9845532 
H    -3.6936368    1.1294647   -2.8320808 
H    -3.7408338    0.7266673    0.2531261 
H    -4.3401776    2.1600149   -0.6093503 
C    -2.1971853    1.9972941   -0.5482691 
O    -1.1575770    0.9993825   -0.4639424 
C    -2.0589978    2.8913093    0.6772970 
H    -2.0135316    2.6004513   -1.4680647 
H    -2.3266636    2.3285683    1.5959915 
H    -2.7372750    3.7636895    0.6020996 
H    -1.0180133    3.2551880    0.8010591 
H    -1.0658326    0.4073357   -1.2840638 
C    -0.9056529   -3.6878485   -2.7847298 
C    -1.3844920   -2.4485917   -3.5460054 
H    -1.6689610   -4.4913469   -2.8005852 
H    -0.6709808   -3.4562971   -1.7273187 
H     0.0202439   -4.0984051   -3.2402650 
H    -2.3658915   -2.1046008   -3.1510935 
H    -1.5527640   -2.7046874   -4.6149795 
C    -0.4108203   -1.2609201   -3.4809386 
O    -0.3230219   -0.7183793   -2.1586523 
C    -0.8030758   -0.1208158   -4.4159109 
H     0.6038825   -1.6265848   -3.7743529 
H    -1.8125588    0.2614738   -4.1623023 
H    -0.8179723   -0.4583801   -5.4708155 
H    -0.0838871    0.7175625   -4.3279739 
H     0.1053467   -1.3593752   -1.4915369 
C     0.6496768    3.4748328   -2.1873928 
C     2.0984345    3.0781159   -1.9021370 
H     0.5903780    4.4685308   -2.6742199 
H     0.0650885    3.5343121   -1.2492360 
H     0.1513737    2.7409303   -2.8559512 
H     2.5445284    3.7894392   -1.1726191 
H     2.7045475    3.1584153   -2.8311813 
C     2.2673957    1.6512081   -1.3535749 
O     1.5152048    1.4378129   -0.1537386 
C     3.7272651    1.3426914   -1.0368889 
H     1.8932908    0.9323669   -2.1225473 
H     4.1092232    2.0476562   -0.2701335 
H     4.3596298    1.4401509   -1.9415886 
H     3.8362142    0.3153873   -0.6412654 
H     0.5444008    1.3786475   -0.3642089 
C     2.5137452    0.7501066    2.9238808 
C     1.7989160    1.8290808    3.7399030 
H     3.2880896    0.2295644    3.5234693 
H     3.0069869    1.1813580    2.0313051 
H     1.7857373   -0.0020655    2.5579352 
H     2.5198596    2.6088160    4.0725961 
H     1.3754456    1.3761760    4.6645230 
C     0.6551527    2.5270201    2.9802550 
O     1.1235487    3.2463106    1.8437138 
C    -0.0888474    3.5210357    3.8690768 
H    -0.0584989    1.7266414    2.6575168 
H     0.5989761    4.3309474    4.1889262 
H    -0.4951448    3.0280693    4.7751947 
H    -0.9273832    3.9891715    3.3166420 
H     1.4046543    2.5896258    1.1529171 
