6
-6.271260604805
C          -6.18363460787453    1.37392296377228   -0.00000197198424
C          -4.86727433060384    1.37391607225492   -0.00000656787520
H          -6.75485070489863    0.80256394290724   -0.71341585571022
H          -6.75483975912567    1.94519620708980    0.71348937727371
H          -4.29606920857063    0.80255105972675   -0.71342445152323
H          -4.29605822716585    1.94518334165616    0.71348080778943
