60
-62.746208919373
C           2.54744885884563    1.40920476140762    1.29733017115872
C           2.30411829890524    2.38832776429500    0.45057999886820
H           1.75664104435411    0.90245187724003    1.82655776795527
H           3.54911355019192    1.06762896746961    1.50417852253028
H           1.30281147808544    2.73124754554897    0.24495861528723
H           3.09679764886103    2.89734438582322   -0.07499145667037
C          -2.24780541374971    1.14777559127894   -3.79142995539307
C          -2.87446285034588    0.14905529657209   -3.20524458819347
H          -1.17171553695843    1.18741422144413   -3.84369758146233
H          -2.77781972051291    1.96974519275702   -4.24577816689365
H          -2.34068220394899   -0.66964062616261   -2.75051415168286
H          -3.95049640989232    0.10380964451561   -3.14982772798099
C           2.78522151296431   -1.82448803624107   -0.36626150438889
C           2.64936748375799   -2.36793306982315    0.82584964539412
H           2.73526188740677   -0.75846389291173   -0.51781034846311
H           2.95589665396578   -2.41746947518629   -1.25029313796978
H           2.48291493110657   -1.77138613303657    1.70884723168906
H           2.70204551884433   -3.43449852112925    0.97763595433812
C          -1.88804279232856   -0.38717938363230    0.31639557315540
C          -0.67573352643469   -0.07184933438717   -0.09035288366467
H          -2.08249721884126   -1.26153322592596    0.91785415522797
H          -2.74633033177037    0.21464917577407    0.06407356806211
H           0.18568783115714   -0.67056317158780    0.15707938976738
H          -0.48736403725103    0.80100393007474   -0.69365172810021
C           1.15695428965585   -0.05335489409266   -3.39273945443598
C           1.84555952551201    0.98908047773523   -2.97632477951456
H           0.53380552536443   -0.63150166879802   -2.72995889711826
H           1.18302906680507   -0.38042625364926   -4.42010852354623
H           1.82036883689730    1.31960495434265   -1.95029219793764
H           2.46844087835176    1.56545677355197   -3.64183174555091
C          -1.25819071103216    3.46175078089559   -1.19310403046620
C          -0.22719097856931    3.89959733949483   -1.88555156128050
H          -1.93520674075438    2.72253518421996   -1.59079042306408
H          -1.47084005422811    3.81803597793974   -0.19758879773483
H          -0.01149461458408    3.53710121847471   -2.87745605752537
H           0.45136599805012    4.64105535734162   -1.49513420701060
C          -0.30045775405461   -3.22402925695723   -2.21824229028487
C          -1.61482150864729   -3.20298649713914   -2.14124294962941
H           0.21365237833610   -3.49427507640649   -3.12649607716817
H           0.32402182309263   -2.97159085269307   -1.37691958960065
H          -2.24080896111113   -3.45611340991684   -2.98186310295369
H          -2.12597399429648   -2.93105998782891   -1.23199615662975
C           1.05025536837034   -1.29169868529275    4.23232509215363
C           0.27713491586782   -0.37228455348717    3.69207652649344
H           1.72940905440058   -1.06473585923883    5.03830386226652
H           1.04027219416662   -2.31726050176116    3.89911527881937
H           0.28086166733260    0.65144546952559    4.03069333675699
H          -0.40137330973997   -0.59645806399965    2.88485022814660
C          -0.79473283560674   -3.74077175816138    1.56272712172613
C          -1.63609850789675   -3.70624722091189    2.57520771956688
H          -0.88516797666500   -4.46280750559749    0.76748601780002
H           0.02492324375991   -3.04593978524000    1.47581109575845
H          -2.45630794958408   -4.40096409056078    2.65937816921654
H          -1.54682252603178   -2.98338472005274    3.37039092541088
C          -1.24450753602792    2.79557347328387    2.44609319346133
C          -0.31850761058690    3.57333711237569    2.96747479117274
H          -1.00191095970420    1.97229343523579    1.79387327997906
H          -2.29328923766885    2.94371758531224    2.64870443690134
H           0.73004160940669    3.42536990245279    2.76535355905783
H          -0.56379335075555    4.39610938905000    3.61984052186041
