60
-62.744318765205
C           2.78776965570389    0.05321607243227   -3.60766973511892
C           1.81889897152477    0.36979135232910   -4.44124894108874
H           2.80326639447253   -0.88447366146414   -3.07544718417712
H           3.61437643970347    0.71789148106974   -3.41488561304666
H           0.99092434739963   -0.29378838165268   -4.63045786713610
H           1.80032893850451    1.31003506206492   -4.96768149523855
C          -2.72922845657600   -0.57076054900507    3.82061883452260
C          -2.11513780478391   -1.67356511808818    4.19595548383753
H          -2.19404456661225    0.34098748971927    3.60927300523717
H          -3.80028994428429   -0.52545600384146    3.70462155945546
H          -1.04457560724461   -1.71993153280691    4.31247737646552
H          -2.65395305607391   -2.58358352910886    4.40730019025461
C          -0.45040884140288   -1.50604281932271   -2.32436485212741
C          -1.66053422341951   -1.36103081359956   -2.82305695947359
H          -0.09266308535708   -0.88835149612515   -1.51729421455967
H           0.23979635540327   -2.24587474511470   -2.69598793709564
H          -2.34486519488006   -0.62003038254731   -2.44234758827108
H          -2.02560612096882   -1.97513934455122   -3.63058958399206
C           2.62057201271988    2.28974614077801   -0.03522399927746
C           1.85763281656302    1.26126833787803   -0.34330233363524
H           2.82051528781055    2.56905829702427    0.98683460976325
H           3.08613582559600    2.90334172375152   -0.78992379747901
H           1.39973587300405    0.64820644392537    0.41708407473978
H           1.66548467041418    0.98219577950486   -1.36746998822255
C           2.47634225966837   -3.08044023609790   -0.73360885686611
C           3.39393619831735   -2.13587708486404   -0.74876285475781
H           2.65466534245875   -4.05478362940888   -1.16025583392685
H           1.50469477851475   -2.92666485671241   -0.29388835114074
H           4.36706985992963   -2.29246680672356   -1.18663088455634
H           3.21827448281808   -1.16063987103141   -0.32373019952818
C          -0.78305018232738    2.47665216345728   -3.48801855082911
C          -0.06000677837674    3.47058484932347   -3.01640135559402
H          -1.53766253415959    2.62955918059085   -4.24276788388102
H          -0.65557020145979    1.46307670633664   -3.14533109904678
H          -0.18747770075659    4.48455319976557   -3.35992929507653
H           0.69526861684870    3.31790751962500   -2.26295540816210
C          -1.44921111481790    2.93667927434018    3.18732677721881
C          -0.14832892871803    2.94016321492123    2.98266640232616
H          -1.87472478059307    3.09221108183638    4.16597007979179
H          -2.14836178214811    2.77775967568424    2.38213577102035
H           0.55529398517340    3.09850978874497    3.78421867215719
H           0.27291638016441    2.78569990465451    2.00287863618580
C          -1.94518186658673    0.39738680643658    0.49264807318857
C          -1.82607077163113    1.49230839950190   -0.22875068265051
H          -2.88676306281037   -0.11460427476479    0.60800402424164
H          -1.10760214765527   -0.04118330808579    1.00917905155994
H          -2.66326569331166    1.93428258845325   -0.74489111331185
H          -0.88424352274874    2.00255700743789   -0.34497706666480
C           1.39014065655677   -0.28206801847436    2.99678249746031
C           1.39015902271999   -1.47475564994218    2.43797552197993
H           2.30321232717138    0.20073238596195    3.30597455007449
H           0.48242312971584    0.27323847933514    3.17275983558682
H           2.30146769506046   -2.02299037298004    2.26206603666203
H           0.48086598142582   -1.96263564439334    2.12366646817767
C          -0.90580784705553   -4.34923781848453    1.03784650870512
C          -1.55458399113176   -3.22196800226317    0.83017852449039
H          -0.84007314101131   -4.79981147522062    2.01514581118362
H          -0.40832609128662   -4.87778846702256    0.24082186090545
H          -2.05251026443970   -2.69644594581703    1.63007072701566
H          -1.61620920286220   -2.76970766867197   -0.14711410519545
