60
-62.745563647228
C          -0.01965564934265    0.42251322884697   -0.13265662296910
C          -0.21243424550573    0.51266714945042   -1.43242201770590
H          -0.77497675672725    0.03736592096231    0.53358968650177
H           0.90286025561893    0.73265297012360    0.32975317542113
H          -1.13902143993181    0.21038683863742   -1.89341721433168
H           0.54581454909153    0.89391174157867   -2.09783046930186
C           1.74496920614388    1.55629539189371    3.35697785793788
C           1.96422806037782    0.25882460891268    3.30263021924356
H           1.54084439513791    2.06312322682403    4.28675408364839
H           1.76179346829725    2.17690132935352    2.47532363421610
H           1.95262206572117   -0.36082218528986    4.18527424400637
H           2.16863145208147   -0.24564530025164    2.37251684359673
C          -1.96308198515432   -2.99659850484493   -1.09066826879968
C          -2.01294562774853   -4.18228040376423   -0.51991251836589
H          -2.29302913923754   -2.83989449095940   -2.10527719207630
H          -1.59630857950467   -2.12648756418786   -0.57185851623589
H          -2.38108280514228   -5.05323804955428   -1.03800138773704
H          -1.68800654653236   -4.34034681726307    0.49597334811276
C          -1.09355253719158   -1.63358342679192    2.62162893857796
C          -2.40730888981073   -1.59079617553857    2.54332107257762
H          -0.53216200220106   -0.92360990471192    3.20718639640567
H          -0.50911900162358   -2.37626495795183    2.10241327368382
H          -2.98474945386155   -0.84219437212930    3.06166205712710
H          -2.96817852848013   -2.29826457202064    1.95451522459428
C          -1.91147968714426    2.16103889880008    2.72581538852724
C          -2.40477669967464    2.56634971721498    1.57398078313521
H          -2.45029128419366    2.28123111982255    3.65213575366972
H          -0.94397561206467    1.69076006132734    2.79825795468548
H          -3.37198779957465    3.03715493149722    1.49943149122444
H          -1.86316819956754    2.44378203666747    0.65005993357659
C           1.22321778652925    4.01299564222356   -0.21523684531493
C           0.97008497553338    4.39655756412659    1.01902113021160
H           0.58481587859823    3.31933152321732   -0.73798947846228
H           2.07967967748543    4.37500565124330   -0.76193589771124
H           0.10893691033550    4.04065887564882    1.56116360146926
H           1.60969334415714    5.08833884307038    1.54357844380426
C          -3.91883061999253   -0.10245933798832   -0.44062216621693
C          -3.92281665906176    0.63844156652143   -1.52891551803886
H          -4.27442727049088   -1.11999920311654   -0.44235033676473
H          -3.55333808077511    0.27183586528398    0.50181559961649
H          -4.28572698886026    0.26654442607327   -2.47375567432276
H          -3.56616700957069    1.65565723490812   -1.52756180703429
C           2.47797942321288   -3.28938199909100    1.29137562309067
C           1.55873299313981   -2.90927859806318    0.42822718345399
H           3.11729899420293   -2.58293715316355    1.79586860248286
H           2.63763809924486   -4.32681115492561    1.53807717432834
H           1.39771731764307   -1.87297223604298    0.17755351582049
H           0.92184113603571   -3.61858379274591   -0.07574723653190
C           3.75179753858187    1.17643614790865    0.21474154964913
C           3.71163316087290    0.03775160801065   -0.44544507606689
H           4.39209699471224    1.32028973579280    1.07010918186125
H           3.14349163826347    2.02206895305649   -0.06429055141436
H           4.31951904302159   -0.80691342425865   -0.16413865208058
H           3.06843871972195   -0.11218146710185   -1.29750632192855
C           1.15549664758199   -2.04683222621317   -3.21904997375053
C           2.42947660243075   -2.28466863939329   -2.98699980182827
H           0.82316107662542   -1.53113726557896   -4.10561033728117
H           0.38408315826795   -2.35559638316646   -2.53302876228267
H           3.20369534156542   -1.97567743851475   -3.67102975403668
H           2.75821895845300   -2.80035670103801   -2.09928178192357
