12
-12.544319895362
C          -1.72116589962851   -0.73446811314004   -0.55733033208409
C          -0.95379798927156   -1.71863665511144   -0.97680315455581
H          -1.33517792327775    0.08118910827248    0.03239586265118
H          -2.77436400149413   -0.69614178673118   -0.78355235633971
H           0.09970014304203   -1.75915159299906   -0.75184757081296
H          -1.34183922097206   -2.53315375207104   -1.56659189624316
C           1.61542099738268    0.18009917013817    1.46535074292027
C           1.84628249186499    0.82743628606251    0.34238182605421
H           0.80832027022742   -0.52787277185845    1.56268055460979
H           2.22296993329639    0.32644489214082    2.34360764135531
H           1.23991115120862    0.68271846001413   -0.53706753113994
H           2.65396690584738    1.53490122948705    0.24746644360121
