18
-18.818398807384
C          -0.17556471935110   -0.61572927525067   -0.98032574374368
C          -0.66554485233084    0.24344481644637   -0.11119204928567
H          -0.69545619518743   -0.86110077509954   -1.89235872915245
H           0.76653289795125   -1.11735789114114   -0.82612252335796
H          -1.60814653160847    0.74188228987787   -0.27031614996076
H          -0.14867616410718    0.49195198225644    0.80147456393965
C           2.77004379734402   -0.29766889000865    1.86412681732376
C           3.03470369042215    0.71784429414346    1.06887326818627
H           3.35712356353987   -0.50201996463850    2.74487535321980
H           1.95446066342755   -0.97530771194785    1.67064844796292
H           3.85125002381728    1.39528944739640    1.26034677957780
H           2.44669371257970    0.92105731990147    0.18842739272384
C           2.70095439917841   -3.38543519394055   -0.63717793051257
C           3.18719600673279   -2.33171956813924   -1.25942750703435
H           2.80041858859694   -3.51303980712074    0.42848896220651
H           2.17980507431579   -4.17029871554965   -1.16095331496069
H           3.70433295437175   -1.54688299178278   -0.73143992775631
H           3.08843155444448   -2.20268778131046   -2.32524774171495
