18
-18.818463837474
C           0.33105877960742    0.33725048707806   -0.99142242034095
C          -0.40324456446632   -0.75106074109707   -1.09266592016750
H           0.18701590755965    1.05106788272940   -0.19656919337128
H           1.11077975006846    0.56696955692521   -1.69970547969105
H          -1.18351238230279   -0.98101823794098   -0.38529333997540
H          -0.25988524888334   -1.46404658639093   -1.88860844364935
C           2.23813673868112   -1.26039868754647    1.69954308396422
C           1.52003289315125   -2.35584149935053    1.56777222207709
H           2.82571794906294   -1.06241586367321    2.58117393021764
H           2.26797409771327   -0.50798571389226    0.92798685216012
H           1.48180985519148   -3.11235510363504    2.33454957933857
H           0.93305530169164   -2.54364631596868    0.68322617006933
C          -2.10183903767462    0.98503365553113    2.12913451280147
C          -1.15450536904412    0.30078789273061    2.73581554565342
H          -2.17318646712346    1.03597305938578    1.05467935749127
H          -2.85424495420487    1.52922303665584    2.67683788456589
H          -0.39934643008624   -0.24515404530188    2.19347102024995
H          -1.08793745750460    0.25345509419202    3.81078443181283
