18
-18.818652914872
C           0.31251222065659   -0.05449504223007   -0.38079746130178
C          -0.16710964500864    1.13541684761596   -0.08642432936155
H          -0.19956989348507   -0.95605760017817   -0.08635892824334
H           1.23327352435804   -0.18255757797123   -0.92672059227152
H          -1.08915938093984    1.25107568940698    0.45966184694226
H           0.33569258499799    2.04404658086651   -0.37599780092762
C          -1.89724741571513   -1.56202548231145    2.15952993409161
C          -2.37132436635684   -0.36965784992423    2.45294702700576
H          -0.93056448545551   -1.88495857981791    2.51021571087802
H          -2.44961479127283   -2.26689013031066    1.55930028876351
H          -1.80999659755932    0.32657809357743    3.05452494780517
H          -3.33675997440114   -0.03570815263840    2.10846110841001
C           1.02395549895987    0.72571980253578    3.38095159513754
C           1.49765061343227   -0.46652751685378    3.08642789385973
H           0.77360754172735    1.43752314926614    2.61129054334556
H           0.86546494511792    1.04431343269951    4.39860829143596
H           1.65260781620805   -0.77375151192451    2.06499320692019
H           1.75194404842529   -1.18662922709438    3.84735858634832
