24
-25.093309912006
C          -0.66463062848233   -0.60575150079649   -0.88489489853967
C          -0.18677216462303   -0.43550791804547    0.33022778554360
H          -0.48497904671534    0.10909234691490   -1.67171858489858
H          -1.25681227532788   -1.46668744764772   -1.15092986198879
H           0.40342827621083    0.42666266276295    0.59660185187079
H          -0.36589930037542   -1.14957874862072    1.11801467037718
C          -1.84866544288580    2.78786557207058    1.82273412303771
C          -2.29564432239435    2.63247484943446    0.59403020558903
H          -1.40001231708636    1.97511757798542    2.36977890199399
H          -1.91184150483308    3.73157663448463    2.34057063455062
H          -2.23215230073968    1.68566904065203    0.08263614800504
H          -2.74567671158627    3.44291354661186    0.04344802963423
C           2.12295960750790    1.86433724723802    2.10896744016695
C           1.80004913483079    2.99212780869101    1.51091931087793
H           1.56158394103211    1.47871240884140    2.94479366869204
H           2.96828933041434    1.27249745077014    1.79665842447076
H           0.95200496749797    3.57992706053560    1.82209348347423
H           2.36061990833471    3.37737476422253    0.67515906989182
C           0.47671633375617    2.98788697774465   -1.86550578120959
C           1.51895457604837    2.24494303190835   -2.17458873539407
H          -0.02888823157675    2.89690650752695   -0.91759189823243
H           0.07862061527194    3.72249839038527   -2.54699209888776
H           1.91552319412555    1.50953169485652   -1.49366323194616
H           2.02476428329982    2.33402153676537   -3.12262913376336
