30
-31.368564502576
C           1.21728890087814   -0.48568873772065   -2.18609914101274
C           1.86413831318946   -1.47042305054898   -1.59865017832549
H           0.53259794262069   -0.65390907455562   -3.00164895288316
H           1.34398981264706    0.53838229653769   -1.87396784024065
H           1.74441788406511   -2.49819352323134   -1.90184940900461
H           2.54711866178799   -1.29041036727313   -0.78414343717273
C           0.46617875868367    0.13257430604128    2.86921342814257
C           0.33661658047416   -0.61724813839248    1.79431949030116
H           0.30156652435806   -0.25474278775380    3.86195872223756
H           0.74676816355625    1.17198285354094    2.80964123660674
H           0.06076361761205   -1.65778249828048    1.85594943292096
H           0.50206079138554   -0.22974968700865    0.80247920537741
C           2.79037843589666    1.95241800736671   -0.00291959285971
C           3.51446221068684    1.03517461088387    0.60402926631317
H           1.77270413023934    2.16181539105541    0.28555101731435
H           3.18052451474564    2.53804463690972   -0.81984610364200
H           3.12423231242016    0.45085006622431    1.42156858775062
H           4.53132148826847    0.82653575831446    0.31265776271946
C          -0.92121527327014    2.67751862915357    0.18265520846097
C          -1.04372321040669    2.14811218529125   -1.01684814049749
H          -1.17189603403804    2.12704709626062    1.07478926925458
H          -0.56807323882433    3.68582889528844    0.33087568371845
H          -1.40131139808527    1.14153344766287   -1.16069858114421
H          -0.79353726986869    2.69745332345893   -1.91032330689318
C          -2.16026759553535   -1.65870831289557   -0.92342620135297
C          -2.80218200068741   -1.04000885401639    0.04565630698745
H          -2.67617652735582   -2.08146320620282   -1.77057989656211
H          -1.08781518729397   -1.76888505953630   -0.91887164390987
H          -3.87411148990585   -0.92584500701770    0.03966097532327
H          -2.28445204618604   -0.61717127186007    0.89145452653966
