30
-31.368376463960
C          -0.20423179311646    0.83384423396677    2.19929157569723
C          -0.15822096952272    1.84195166458174    1.35354718703635
H          -0.44552686488616   -0.16888702982711    1.88465382425482
H          -0.00161735851933    0.96245781390019    3.25055108759063
H          -0.35980175987068    1.71794920440190    0.30153663165711
H           0.08419149945606    2.84295955551483    1.67285334310823
C          -1.95289557070884   -1.01446041415856   -1.07240467212014
C          -2.90074362413773   -0.34106871509154   -0.45411647959346
H          -0.91649547764148   -0.93840852611330   -0.78563310447027
H          -2.16923438246823   -1.67464831611030   -1.89712650603393
H          -2.68500029157862    0.31807104446495    0.37134709838317
H          -3.93732414078295   -0.41679999406770   -0.74206921227497
C           0.02867138392002    1.58923154382241   -2.83604401852248
C          -0.87094114923698    2.35780186904557   -2.25829296731612
H          -0.16076902694483    0.54721792422951   -3.03455438386221
H           0.99473898076150    1.96319933926877   -3.13482894810260
H          -1.83510986358888    1.97679920310666   -1.96217688124061
H          -0.68756785158045    3.40074521777204   -2.05543831920957
C           2.01003755271404   -1.64659131512713   -1.58029000160926
C           1.76832556447067   -0.78900703304183   -0.61071973431527
H           2.15918281372411   -2.69741479893330   -1.39107560940352
H           2.07297639223433   -1.34024753743072   -2.61193904255755
H           1.70413235488067   -1.09425242010780    0.42107922378597
H           1.61960714405802    0.26158495191737   -0.80029044901930
C          -1.09138459987106   -2.76776196580597    2.07156028372709
C          -0.06402202439991   -3.27763924508719    1.42462971616949
H          -1.09733505284736   -2.66588071876412    3.14494395547640
H          -1.97572991677613   -2.42893097366771    1.55620806728492
H           0.82278376916636   -3.61721562347341    1.93518980336822
H          -0.06179888599785   -3.37760967968182    0.35172535475367
