30
-31.368057098598
C          -0.96279432953495    2.74707100426880   -1.82674193817281
C          -1.39027764741050    2.32040530458819   -0.65663824173943
H          -1.56342474056226    2.67209604918557   -2.71895849806150
H           0.01041859527141    3.19420092091275   -1.94995232809124
H          -2.36125407502260    1.86968706955367   -0.53118263849642
H          -0.78575813654348    2.39113225839792    0.23279446151962
C           1.46710749702500   -1.49385983221253   -1.74079027458873
C           1.30936198560511   -0.23003318960912   -2.07684652946559
H           2.39693251725500   -2.01626170438919   -1.89977723871861
H           0.67389335918094   -2.07039921575321   -1.29323051754547
H           2.10530217010165    0.34169723658581   -2.52726797744885
H           0.37990692127872    0.29547924549149   -1.92351752935444
C          -1.24946758086129   -0.74028155004231    1.08859189800944
C          -1.66483376888160   -0.18033566329502    2.20554028234020
H          -1.76339204259328   -1.57796152337066    0.64449576631491
H          -0.37815504341628   -0.38379712463894    0.56506833563148
H          -2.53656573819768   -0.53103637735422    2.73419383277696
H          -1.14770972387510    0.65685242240751    2.64539311973375
C           2.63708493116319   -2.03323275648558    1.72122271162793
C           1.69188478383008   -2.39107981353744    2.56527970354706
H           2.41493555509963   -1.51945425122032    0.79991176769556
H           3.67880781680298   -2.23645405336980    1.91008759202524
H           0.65047039363782   -2.18319575389660    2.37736127121852
H           1.91427008810301   -2.90470990848724    3.48678017256047
C           1.83529197158201    1.94860522061152    0.94331920673985
C           1.69387334386125    1.58954003779180    2.20231287477440
H           1.93503023516981    1.22467535714751    0.15052502603511
H           1.85940470493498    2.98394593781985    0.64287840081879
H           1.67501265895796    0.55425827611379    2.50155048208927
H           1.59423825998646    2.31576822812071    2.99338488650642
