36
-37.643518645700
C           2.99930342478545   -0.68258766658893   -1.68204242594903
C           2.72615508746834   -0.05720532736887   -2.80834690126179
H           3.97625684576301   -0.64052749438696   -1.22775320936111
H           2.26033818264486   -1.26689570051358   -1.15767611567265
H           3.46480710541337    0.53000907917530   -3.33016144135113
H           1.74894887242603   -0.10286184844208   -3.26220733962010
C           1.27844213097062    0.69737176617561    1.80653183009762
C           2.48767968048075    1.08277828241873    1.45565021184291
H           1.01728094759952    0.49791289078435    2.83365989344878
H           0.48858504488605    0.56490693683271    1.08535107135529
H           3.27721732823209    1.21653241432279    2.17774357253975
H           2.74658901313625    1.28047916196818    0.42824148808962
C          -0.76267102380758   -0.83823917634783   -2.53943587939780
C          -1.49220403246498    0.08025015665074   -3.13782508857736
H          -0.52737883904539   -1.77890349210767   -3.01102644750171
H          -0.36705942452211   -0.69801839652396   -1.54697201171580
H          -1.88965004019740   -0.06093510472481   -4.13014679260225
H          -1.72602141266923    1.01940539468034   -2.66348705362033
C          -2.20443476873834    1.11584106105549    0.77096219645061
C          -2.84661488413761   -0.00850772866668    0.53005427390938
H          -1.69473552524461    1.66332820866898   -0.00582420661195
H          -2.15575961369312    1.54550673828128    1.75868499371669
H          -2.89421977950068   -0.43737714124218   -0.45785802811091
H          -3.35673961295444   -0.55264011123775    1.30907004572635
C           0.55959589138620    2.80137009873357   -1.69826011209934
C           0.29225261623543    3.52247953944028   -0.62925651774979
H           0.22148965240462    3.08897160115653   -2.68089462472463
H           1.12930409346120    1.88785836522063   -1.64595748349336
H          -0.27954004571981    4.43521351813229   -0.68363112144603
H           0.63424660145720    3.23457653469358    0.35171927425206
C          -0.22021406348351   -2.64127497442592    0.52875358885830
C           1.07178550016797   -2.73673120355037    0.76530522648146
H          -0.74564638994559   -3.36319962244797   -0.07530214002650
H          -0.81691499921655   -1.83570360660976    0.92591022250469
H           1.66669912781328   -3.54393520850197    0.36852336476471
H           1.59557560099058   -2.01148276073489    1.36749314533640
