36
-37.643169265240
C           3.11311405329494    1.36698990638679   -0.43262970455556
C           2.68974323666896    0.12026311358034   -0.44135128539049
H           2.46789482319722    2.18860129946669   -0.69777600072296
H           4.12309509957143    1.62720172370961   -0.15931563046036
H           1.67961775696243   -0.13609025010139   -0.71719548981443
H           3.33442800449167   -0.70338141258430   -0.17852259350087
C           0.86375079491071   -3.21115416409003   -1.42657488891515
C           0.37458048373158   -3.09429764451067   -0.20955346652154
H           0.40662535076020   -3.84697461232293   -2.16790592362459
H           1.74712533803709   -2.67980751789808   -1.74196992434286
H          -0.50811908686200   -3.62783202612798    0.10404145542006
H           0.82870543451256   -2.45879208903853    0.53398216272681
C          -3.42714976312564   -0.23047953974181    0.92447423144551
C          -2.56452674888208   -0.95300047221241    0.24076548427963
H          -3.12817418693968    0.35595204220157    1.77791866564649
H          -4.47256114860834   -0.18767318359304    0.66381500317253
H          -1.52024902366922   -0.99470692342541    0.50324524690541
H          -2.86149406921404   -1.53995178183734   -0.61357532288482
C          -1.38245018599896    2.98292581590515    1.25185293777503
C          -0.22829691727142    2.38158603847270    1.05107487292912
H          -2.23652331579469    2.79884684791813    0.62051398757902
H          -1.53093958589298    3.68534389868428    2.05633448110284
H          -0.08551020746748    1.68050950838860    0.24502309991289
H           0.62857938718626    2.56331752259497    1.67978811157818
C          -0.02990762765241   -0.64136593220952    2.95271869233713
C           1.23683833037419   -0.90675206890952    2.70926395194825
H          -0.49551919350646    0.26682720307429    2.60537542222793
H          -0.66005933484423   -1.31817987300875    3.50686283548079
H           1.86298332412217   -0.23005193682121    2.14962457847189
H           1.70892112402263   -1.81196473780403    3.05735788764579
C          -0.20754829329738    0.14328319160969   -2.63354351076157
C          -1.01221385629284    1.10098980976124   -2.22147663319016
H          -0.36882936949527   -0.89002470181020   -2.36991900083390
H           0.65198834004101    0.34570869818977   -3.25225063562256
H          -1.86976531796625    0.89491498792425   -1.60122616853225
H          -0.85087738292862    2.13461880811832   -2.48206118558342
