36
-37.643177148207
C          -0.89475369581689   -1.00863546955725   -2.91357267039958
C          -1.03577984042257   -1.49774460114779   -1.69940561528015
H          -0.68763926981582    0.03490713607131   -3.08582416982241
H          -0.97645560067280   -1.62663002787363   -3.79331959708943
H          -0.95412363188696   -0.87875483462808   -0.82132038328091
H          -1.24073093906437   -2.54169726354619   -1.52402217441673
C           1.58740918738370    1.29158577238490    1.86754612363574
C           1.18051581131332    1.92044255284971    2.95043674838379
H           2.60125382763944    1.36835871972914    1.50936072446908
H           0.92937145209120    0.66617040544612    1.28711582120786
H           1.83926803030796    2.54548970277987    3.53166440773607
H           0.16747355239990    1.84061167283752    3.31066689350073
C           1.85952301281567   -2.02494670104033    0.72114309216542
C           2.30602382952319   -2.02996943276787   -0.51774558971764
H           0.81632917423104   -2.16794254279174    0.95217411579963
H           2.51388991944473   -1.87357429726879    1.56435111457026
H           1.64765189803122   -2.17840174696658   -1.35878631183214
H           3.34925921714973   -1.88642144388597   -0.74988928751462
C          -2.00548875073466    2.42186652820655    0.68467915126242
C          -1.91766297157130    1.86446500556534   -0.50531612302528
H          -2.92712560342993    2.43489784724790    1.24483096523576
H          -1.15826351647982    2.89430141400024    1.15520811751567
H          -2.76147647668031    1.38813338879977   -0.97788119417475
H          -0.99431726495797    1.85601920891552   -1.06153655576858
C           1.82982531483989    1.34520239213207   -1.97124304913626
C           1.58320304664137    2.56659221566643   -1.54480883040182
H           1.98738105963278    1.12638215374415   -3.01527388193875
H           1.88468535017991    0.50314448326445   -1.30018148172062
H           1.52485401812701    3.40714400220374   -2.21780856051857
H           1.42867992917161    2.78514071912880   -0.50035534240061
C          -1.43196147952973   -0.93466951289262    2.27955097926065
C          -2.03221803083408   -2.04036185860056    1.89062499795093
H          -0.69367732866394   -0.93123021759943    3.06534170142004
H          -1.64824066299222    0.02057956041221    1.82771351877537
H          -1.81713256814543   -2.99703304020817    2.33925651427519
H          -2.76894005703565   -2.04230906786828    1.10374163236862
