36
-37.643396934884
C          -1.51019646875330   -3.46238481693060   -0.57740686338501
C          -1.87032858239061   -3.06008139958172    0.62367131298697
H          -1.42879931444154   -4.50796894412440   -0.82740668362003
H          -1.28219004660011   -2.76640877392783   -1.36850522914839
H          -2.10417592324864   -3.75563988529602    1.41370652011444
H          -1.95091587023811   -2.01519002176658    0.87622438683919
C           1.08777860020319   -3.07282307208566    2.82781487324921
C           2.08418131526960   -2.21567188002040    2.90743477766694
H           0.56119692233266   -3.25208572625121    1.90407377729992
H           0.74852148584713   -3.63513773907724    3.68302676719901
H           2.42063219156103   -1.65416674484483    2.05065226923105
H           2.60944269173309   -2.03437784598889    3.83135108937698
C           2.47099966309250   -0.35632683852148   -0.87696124677488
C           1.76734156573297   -1.43067748216246   -0.58455933790360
H           2.07701166765955    0.63981562601475   -0.74852348361404
H           3.47640500142604   -0.41926337811425   -1.26175819900597
H           0.76287941278445   -1.37014421786703   -0.19941334927297
H           2.16162820927956   -2.42555357317705   -0.71591086608375
C          -0.89272899413795   -0.16323464468921   -2.92878927242457
C          -1.79315966992907   -0.00009237766373   -1.98163155167535
H          -1.15393257564933   -0.13667233085268   -3.97448260030260
H           0.14793932838169   -0.33237274580658   -2.70288386929017
H          -2.83455325109690    0.16697514307223   -2.20519036671552
H          -1.53388599736285   -0.02657370087579   -0.93535863557835
C          -1.66149714632587    0.88912433946550    1.72061416958024
C          -0.44480234093805    0.39992081593508    1.84465103191467
H          -2.50599371455223    0.46416733983597    2.23966398046788
H          -1.87534211696823    1.74175060571246    1.09570733158528
H          -0.22743030994401   -0.45176009932468    2.46923250527444
H           0.39657078542025    0.82738903143262    1.32415655671102
C           0.70468945854884    2.90516652538438   -1.16936050385121
C           0.98687668761395    3.50713561587343   -0.03237686192199
H           1.33073048199767    3.01172332036582   -2.04090062497972
H          -0.16413897427699    2.27856069311103   -1.29039442982023
H           1.85826088500315    4.13153453565134    0.08265600078442
H           0.36262261798208    3.40483255570693    0.84048833902572
