36
-37.643194014616
C           1.97720987810849    2.07925584182247   -0.02248829027874
C           1.02887726946032    2.80862088421801    0.52829124750757
H           3.00150773103802    2.13170500278869    0.31026517157632
H           1.77764901131136    1.39476607888739   -0.83101783030351
H           1.23415571179286    3.49408678777614    1.33517743979497
H           0.00318116262319    2.75995365268814    0.20044507366502
C           0.27283441609146   -0.03043242726047    2.65762380841844
C           0.97858823174978   -0.84688885680833    1.90333470448316
H           0.29602127347147    1.03699626788799    2.50769927400308
H          -0.35853613923108   -0.38789802217927    3.45488308385074
H           1.60561231093850   -0.48017491271212    1.10628734508801
H           0.96509219637660   -1.91534012176396    2.04852129480975
C          -1.35225347248136   -2.07198395083722   -0.69009944759011
C          -2.50052360057138   -1.65641660591509   -1.18256534903885
H          -0.91091396708905   -3.01020846263468   -0.98641749806602
H          -0.79710657322363   -1.49922376300306    0.03584594871623
H          -3.05196880871521   -2.23385091853964   -1.90728718236908
H          -2.94567981861712   -0.72109308587747   -0.88446803181911
C           2.53720797996814   -1.51694668052156   -1.50548654580119
C           1.71870738619392   -1.04136340782476   -2.42070946672114
H           3.53002158256235   -1.12122685965931   -1.36303450051515
H           2.25481662080549   -2.32850869866941   -0.85489925974179
H           1.99754654478400   -0.23077898554277   -3.07475249469015
H           0.72537968285849   -1.43589895853641   -2.55890603428160
C          -3.07929170176973    2.29453731543893    0.05116530571160
C          -2.67625962500117    1.51976030165178    1.03679109481478
H          -3.91427273599639    2.96780930496503    0.16041145036343
H          -2.59536993370644    2.29385980536386   -0.91302572714601
H          -3.16205292161275    1.52179930878726    1.99915071502888
H          -1.84154826483853    0.84531350233732    0.93444316118972
C          -0.88564542339291    1.27135885429963   -2.66437048798909
C          -0.40332706149851    2.41738803118308   -3.09835362394339
H          -1.62138747967640    0.71194305029138   -3.21959212828697
H          -0.56680749761021    0.83025757178595   -1.73438198247497
H          -0.72236145521900    2.85562419726902   -4.03038933750782
H           0.33222340327086    2.97418149333670   -2.54054481513155
