42
-43.919150542660
C           1.72546752518775   -2.56892922810405    0.78143656699671
C           0.70992992603324   -1.73309435490417    0.70978272201455
H           1.58623051207838   -3.62892955002588    0.92172120838458
H           2.74778313384827   -2.23439765350256    0.70379238453572
H          -0.31385294711526   -2.06302023846198    0.78559842387843
H           0.85273217851752   -0.67421664948925    0.57067250280057
C           1.65971948361164    0.26118803441162   -3.33819370950342
C           2.01152567621151   -0.87662812577153   -2.77605300454929
H           0.81197088832300    0.83026480820688   -2.99256836061235
H           2.20436035620923    0.68004273492466   -4.16913598693402
H           1.46776584696857   -1.29705187999871   -1.94542920059976
H           2.86082852504484   -1.44435244475727   -3.12167917275527
C           0.25732394578123    0.10351431130002    3.79637803113291
C           0.02079341399345    1.28100351634073    3.25716179452909
H           0.24996200493972   -0.04688567618724    4.86396329513581
H           0.46876548328023   -0.76644098163584    3.19540134888729
H          -0.19220213936734    2.15102373069917    3.85710257342946
H           0.02875875203689    1.43384279346747    2.18981378414100
C          -1.34742464096545   -2.91170900029877   -1.90767938604180
C          -1.61618620723558   -1.95201096774953   -2.76818948594486
H          -2.09167348938228   -3.29969401449725   -1.23138524330343
H          -0.36700292022301   -3.35320075099609   -1.83487572800537
H          -2.59695950967886   -1.51044750894420   -2.84352528081608
H          -0.86926402685737   -1.56283850489420   -3.44098351327499
C          -3.48307008686209   -1.62909080108181    0.87689599227300
C          -2.69616843057312   -1.05526372748585    1.76296680107571
H          -4.01830316310676   -2.54046702096255    1.09080903285450
H          -3.63033758358252   -1.21413651406436   -0.10664260578934
H          -2.54546665885502   -1.46761301062076    2.74753386801535
H          -2.16206970872186   -0.14409798850006    1.54923338175946
C           3.13826230826788    1.24488696706495    1.36503100387616
C           3.28344867125862    1.27241884301919    0.05624076871170
H           2.89382842728099    0.34045241517903    1.89732175875824
H           3.25001511926544    2.12929003305471    1.97102451740493
H           3.16873164372110    0.39202835895371   -0.55592722396189
H           3.52570830119371    2.18067332227731   -0.47237634612852
C          -1.28650616417664    1.15764964241026   -0.78623860744125
C          -0.34167030379897    2.00469716591399   -0.43239632986155
H          -2.32904489311167    1.43303463632011   -0.77284631008894
H          -1.06822632613244    0.15087909509149   -1.10511994995763
H          -0.56758770329249    3.01050450012435   -0.11502008398951
H           0.70433652144795    1.73974784002582   -0.44431210780198
