42
-43.919130908532
C           0.76039316523216    1.62025678066893    0.52041413183607
C           1.27298489614784    2.78530687423233    0.18037784401310
H           0.96356641964258    0.72312581310922   -0.04054256208393
H           0.11486195079640    1.50207749105244    1.37552829345549
H           1.91929102893739    2.89852429742522   -0.67557673050454
H           1.07330090463034    3.68413389449176    0.74154429440575
C           2.95166663024613   -0.34349411711802    2.51330993798144
C           2.59130506518933   -1.49473427131341    1.98584973244668
H           3.51399020511423   -0.28797704592695    3.43145976766850
H           2.69955534347720    0.59804466733662    2.05183850997754
H           2.84036218611123   -2.43634634422583    2.44798536228468
H           2.03119852040935   -1.55342173849397    1.06641135561757
C          -1.12394258048247    0.44869385374666   -3.44707697386039
C          -0.86548424557998    1.61804416876158   -2.89923024002369
H          -1.17954480208310   -0.45579849731979   -2.86344986860867
H          -1.29157785443216    0.33935694623055   -4.50655891662685
H          -0.69841274151452    1.73015157543280   -1.84005705832049
H          -0.80982427205824    2.52190053046755   -3.48489353574809
C          -0.92598892576467   -0.55761363298647    3.14050729512118
C          -0.43976872418037    0.34581379920812    3.96560808289555
H          -0.28408276365419   -1.15232908392273    2.51148921938474
H          -1.98412565183007   -0.74341710533042    3.05314456729549
H           0.62038328021259    0.52387385399936    4.04584969861549
H          -1.07283021972130    0.94638202616580    4.59936997283129
C          -2.73821080018562    1.81258333375936    0.73094192665776
C          -3.27136893295790    0.86518754051363   -0.01230372999618
H          -2.26415319998617    2.67792085414332    0.29732375646978
H          -2.74618614959944    1.76824289114093    1.80783349406340
H          -3.25975118042158    0.90979947240652   -1.08930426002664
H          -3.74790807857903    0.00050062949211    0.42081268226085
C           2.64847677975309    0.01320767405501   -2.57925590333162
C           3.49521008067482   -0.13355954759474   -1.58027623806027
H           2.66765813500941   -0.63213031391405   -3.44282448607830
H           1.89337823513977    0.78296986666388   -2.58774847774957
H           4.24493447269503   -0.90802203165736   -1.57643077491743
H           3.47819570492217    0.50749774975753   -0.71439987714174
C          -0.85162274554381   -1.86501192495043   -0.22516128929553
C           0.23404365651348   -2.24264176141160   -0.86807354801861
H          -1.46829198903986   -2.56973782604950    0.30952219915870
H          -1.17891404065173   -0.83763054328035   -0.19840742724973
H           0.55530170966371   -3.27211100261757   -0.88912400142139
H           0.85613670885570   -1.54608931793017   -1.40911250020925
