42
-43.919005867774
C           1.64835637098687   -0.30309731638409   -0.31054512841515
C           2.31851557619588   -0.05872005694403   -1.41788062409550
H           0.58770589352549   -0.49464500480442   -0.31643153906783
H           2.12627328799607   -0.32115826354395    0.65635610978764
H           1.83881985397848   -0.03654297007455   -2.38339064872932
H           3.37935462536309    0.13453890492903   -1.41406575854688
C           0.34251923008981   -3.11745388143144    2.09501722582299
C           1.43461253088428   -3.51074889271147    1.47313662549877
H          -0.06035068308884   -3.65722912383514    2.93724433061642
H          -0.20249546328805   -2.23772309656246    1.79205310753135
H           1.97931551626759   -4.39082131502450    1.77492782838007
H           1.83590693067663   -2.97007552955853    0.63137777193213
C          -1.26219136962884    1.50744771676553   -2.08703468715448
C          -1.63339954553567    0.32783821221758   -2.53942068444929
H          -1.95670108397294    2.32632344819876   -1.99090612365933
H          -0.24723991601883    1.71204410903332   -1.78815520377526
H          -2.64990818697097    0.12434086080763   -2.83519404129941
H          -0.94138162753465   -0.49377825151093   -2.63365734877774
C          -2.30280649652563   -0.87470472028390    0.79821043984903
C          -2.03833330775558    0.33085132628611    1.25743528980005
H          -2.05344233929788   -1.16478708163313   -0.21015484744284
H          -2.78691310378049   -1.62521033205847    1.40253701294246
H          -1.56149411542684    1.07944710171832    0.64481395060446
H          -2.29340872041786    0.62668218017348    2.26284876609625
C           0.00181342281939   -3.03211011788581   -2.49124322984171
C          -0.87808108878078   -3.48297286334427   -1.62128899806538
H          -0.22299457266732   -2.95125996441041   -3.54305738277374
H           0.99086672226204   -2.72404352807357   -2.19299225589437
H          -1.86816087135964   -3.78942906993636   -1.91883207833343
H          -0.64792455817306   -3.56962835314409   -0.57192221049177
C           2.17223010417273    1.20335821392796    3.46262701653684
C           1.29477918688505    0.25818190123242    3.19657477628790
H           2.02835221224544    2.22358983698528    3.14568281891845
H           3.07980114262455    1.00155763625573    4.00845890570254
H           0.38786536219456    0.45688915404602    2.64840965103679
H           1.44058643408089   -0.76371040179444    3.50826771730145
C           0.79378256020762    3.22230731821004    0.41424847428578
C          -0.08022919956006    3.66762526070574    1.29265114411027
H           1.09167835981291    3.81014701985333   -0.43923328060059
H           1.25392834013746    2.25111053093940    0.50304735836577
H          -0.54020263358003    4.63827323882626    1.20064809853781
H          -0.37778860128986    3.08438818936574    2.14883224229357
