48
-50.193942217540
C           1.13438561104680   -1.06021016822483   -1.79139078610321
C           0.97307228010873   -2.26928758376431   -2.28642734982950
H           1.01581660484653   -0.17395197244552   -2.39452697329152
H           1.39540690870531   -0.90257687217357   -0.75759606853217
H           0.71515204190201   -2.43551484302223   -3.31989584507446
H           1.08983040461893   -3.15216524559579   -1.67930835614335
C          -0.44630565099449   -2.12794467483068    1.89370197125000
C          -1.07530397075380   -2.65048642597936    0.86161159826160
H          -0.08966789011604   -1.11095225314325    1.89251946434449
H          -0.25753535911696   -2.69063293389676    2.79420278335643
H          -1.26437829854371   -2.09066662216329   -0.03992458418726
H          -1.43088002642615   -3.66856341257565    0.86852752560579
C           3.26567901598373   -1.00192264750034    1.89195662352451
C           3.04045702893325   -1.99948144612553    1.06234703339649
H           2.61360909119377   -0.79359700822131    2.72518421491854
H           4.11026368316058   -0.34190259523641    1.77736024791098
H           2.19125305852547   -2.65401139638763    1.17617165272643
H           3.69040727859375   -2.20707968880739    0.22769723860289
C           2.05677042198908    2.08862046870806    0.45927637934832
C           2.89458814111726    2.08584909516096   -0.55638359137031
H           1.66616753998063    3.00229343995065    0.87768298235034
H           1.72248827276257    1.17575375613640    0.92367572406403
H           3.23451533239759    2.99737725999888   -1.02178934919580
H           3.28109048409961    1.16925865995656   -0.97143683098335
C          -1.05229811741042    2.06067241751023   -3.39601242132502
C           0.23816569992789    2.22856413011700   -3.19261103820100
H          -1.45634383390450    1.87069186309446   -4.37745518617809
H          -1.76639754215525    2.10419749212715   -2.59006664063496
H           0.95335122372150    2.18559151499879   -3.99881758055349
H           0.64467210689031    2.41812047809329   -2.21173960082483
C          -1.50955558410326    1.14678313177412    0.30965449511729
C          -1.66194699042782    2.44956894133135    0.42903705834140
H          -2.08877626708009    0.44676125277878    0.88992648604217
H          -0.79974408961619    0.71489690180451   -0.37645657225044
H          -2.37339101840403    2.88312371302165    1.11406737830903
H          -1.08248255323942    3.14801979515714   -0.15298408600728
C           0.11661394934729    1.06284827855844    3.71527479095301
C           1.35584128345825    1.21253816931817    4.13519424943302
H          -0.59460941750227    0.44946823928302    4.24475976255463
H          -0.24816098568119    1.54403108545097    2.82187433810307
H           1.71856046981239    0.73143732496681    5.02956915133349
H           2.06807808056503    1.82550414924740    3.60679953387961
C          -2.49653145239040   -1.28750607142416   -2.48710808444513
C          -3.52073030866785   -0.87876067088348   -1.76792530252161
H          -1.73980447664640   -0.60722612938291   -2.84186323382632
H          -2.36336167576636   -2.32351001108472   -2.75363495788078
H          -3.65067581263786    0.15672376010251   -1.49856666610163
H          -4.27623417210936   -1.55894144111245   -1.40922231519678
