54
-56.469580558386
C          -0.86006356084279   -1.05917090685081    1.91272523435650
C          -0.29498878281002   -0.57523748052152    0.82583510608173
H          -0.45442385115394   -1.91194965889021    2.43337318759199
H          -1.75550756230493   -0.62920738114058    2.33192590726911
H           0.59935724610094   -1.01045884645197    0.41036614213961
H          -0.69969989377924    0.27755966946108    0.30369177639030
C           1.31833105837671   -4.06461464003424   -0.38733698067415
C           0.16452177343621   -4.29798995886100    0.20286571666623
H           1.48957568921226   -3.18052796340931   -0.98083072181260
H           2.14914223991811   -4.74743294923716   -0.30635759514778
H          -0.66567445114314   -3.61570398300692    0.12164263619092
H          -0.00427379698675   -5.18203617031622    0.79666139366464
C          -2.52241607866912   -1.87064283248675   -3.12645824886052
C          -1.40777965772631   -2.09427962063114   -2.46278494034750
H          -3.13807025705925   -1.00764145648883   -2.93187858835804
H          -2.87493319402834   -2.53958030315882   -3.89489018949543
H          -1.05704395560588   -1.42426994593453   -1.69521472476844
H          -0.79189673308121   -2.95819714884197   -2.65297890084494
C          -1.40182890278778    1.76085481416073   -2.11690926574479
C          -0.71273015466922    2.55057997582072   -1.31920704060222
H          -1.01658773264982    1.42593618769415   -3.06643682844883
H          -2.38586297272997    1.40681155491545   -1.85445548877317
H           0.27413767368140    2.90552739677903   -1.56985368376207
H          -1.10227800544746    2.88139696294361   -0.36962475730853
C           3.19921629104909    2.58458821942048   -0.30535317002678
C           2.44467415613029    2.24781557871459    0.71957495014311
H           3.90309136396804    3.39972961081407   -0.25350667320755
H           3.15268728030938    2.05914915633593   -1.24541238694348
H           2.49592879247439    2.77088933523355    1.66089497357267
H           1.74128819714184    1.43331147744671    0.66924044595112
C           3.29758124471900   -1.86278202300533    1.79036825962227
C           3.05605867984197   -0.73860689271698    2.43193570288424
H           4.28328256234485   -2.11491038866326    1.43343065577175
H           2.52325087659519   -2.58583114884738    1.58893792181936
H           3.82945910311130   -0.01366337232072    2.62738432271001
H           2.07024182247643   -0.48799858153873    2.78792475277530
C          -2.09489123308308    2.91812729836880    2.76100803978041
C          -0.81604091465696    2.74836024365664    2.49694483311260
H          -2.69029935029717    2.14771664470550    3.22397802530745
H          -2.61032859798496    3.83689677378574    2.53133178217210
H          -0.30425519263318    1.82722598905202    2.72260338591627
H          -0.21973520304668    3.52066944973927    2.03832857956059
C          -4.09743256384940   -0.40355185279297   -0.08114920955768
C          -4.06946822212741    0.85618246937595    0.30157496338353
H          -3.24408418185355   -1.05272482837566    0.02694321831827
H          -4.97477799643491   -0.84652116194843   -0.52457335124820
H          -3.19333172641148    1.29997266292160    0.74624301298016
H          -4.92221406446610    1.50677766909168    0.19028754037776
C           2.83594563705546   -0.96242241458695   -1.74260582798997
C           1.80234758356854   -0.44833595666751   -2.37699668737297
H           3.09487538573753   -0.67182927106968   -0.73660013119361
H           3.47702482359023   -1.69919661172284   -2.20038498732433
H           1.16188167728955    0.28997678824414   -1.92315578792861
H           1.54279593784482   -0.74320585993401   -3.38114742176896
