54
-56.469710981940
C           0.38410956647016    2.29484227746627   -0.02304563978335
C           0.17394471576056    0.99535560487391   -0.07277288881008
H           1.32440759450148    2.73195671746238   -0.31936087919058
H          -0.37204596603629    2.98523297916913    0.31587641172105
H           0.93234895385478    0.31155826350821   -0.41810272736814
H          -0.76414688484370    0.55742529104365    0.22809406043384
C           3.93556416942963   -0.21370433063602    0.36243278798553
C           3.74894996396769    0.89710913821333    1.04466492608297
H           3.19775523716936   -0.99933218773696    0.33349915215294
H           4.83886951123836   -0.39200843435673   -0.19890997470861
H           2.84643862701883    1.07695353017232    1.60561349080290
H           4.48793430051399    1.68184878342741    1.07335290515525
C           0.82743277072663   -2.70994360235377   -0.74320916075978
C           1.60646019320006   -2.31234075405092   -1.72787568210056
H          -0.13178746262893   -2.25699085493194   -0.54990886859609
H           1.11322997181221   -3.50823035405254   -0.07721343752640
H           1.32911384004471   -1.51137591091057   -2.39446325052864
H           2.56513594598984   -2.76894923082285   -1.91578411146960
C          -3.52879244035342    1.68944218993455   -0.45967362705316
C          -3.59390462386099    1.69306453769728    0.85540858004743
H          -2.64500750323553    2.00569877387971   -0.98905435640702
H          -4.35665857853151    1.36798195781253   -1.07062167907557
H          -2.76643705500289    2.00980234187376    1.46995927802519
H          -4.47789017506663    1.37404967877177    1.38318444419081
C          -1.81467894288955   -1.32024381910569   -3.45270081174837
C          -1.59431904058505   -0.05612612389534   -3.15801104811107
H          -2.60127168883070   -1.62091133804588   -4.12597666036724
H          -1.21892216344410   -2.11545502391791   -3.03534804966183
H          -2.18979280671473    0.73873640373676   -3.57772268899902
H          -0.80833494020927    0.24610452323259   -2.48492311487707
C           2.74259805496329    0.82986940615818   -3.03264816753714
C           1.69973835535092    1.45321877555482   -3.54017925632975
H           3.04613686201151    0.96019487080117   -2.00617482694175
H           3.34409585155776    0.15509826521669   -3.62020850425485
H           1.09803658344732    2.12762145952853   -2.95315771789236
H           1.39393494580177    1.31679992662686   -4.56484069760781
C          -2.71750274575053   -1.90920755130880    0.14814434121231
C          -2.61674016247899   -1.71044988755156    1.44592400211899
H          -2.70639150963305   -1.09436505558860   -0.55826077473011
H          -2.82398516301170   -2.89638589008466   -0.27247234589530
H          -2.51367304467274   -0.72303053162332    1.86646561784856
H          -2.63757342706188   -2.52552841759191    2.15166765672873
C          -1.25794289112094    0.73978139674579    4.10579915551658
C          -0.93781335644456    1.88425569295746    3.53871959601227
H          -2.09840909001376    0.65022004030900    4.77520946426578
H          -0.69088106174283   -0.15993035003228    3.92898857051518
H          -1.49727391010906    2.78854077089103    3.71951594943389
H          -0.09903702771200    1.97172846169318    2.86728666190804
C           1.99348584992545   -1.92437932617036    3.23753556426913
C           0.93374230373345   -1.68388239585076    2.49394715818946
H           2.06647398190898   -2.79846317892622    3.86458400410976
H           2.84119048743057   -1.25894077864754    3.25377937543927
H           0.08613354966329   -2.34954928022811    2.46998179941490
H           0.86176832204194   -0.81089098206846    1.86684859102682
