54
-56.469600560175
C           1.70518618454113    1.12442919839721    1.65605238196510
C           0.83784452958654    0.71891019270061    0.75239385583174
H           2.72350300768040    0.77021300955566    1.66841475251377
H           1.43721592249153    1.82909182548812    2.42709527837642
H           1.10684652143298    0.01440913479621   -0.01702801406548
H          -0.17816640777209    1.07890515123973    0.74133413661648
C           3.43745764995104   -2.03126874847073   -0.55002814286546
C           3.48367277712527   -2.00752787609038    0.76590723630818
H           2.50467899109652   -2.03015907047527   -1.09147680034800
H           4.33221819491488   -2.05660325279998   -1.15164693477529
H           2.59021794072000   -1.98345848703880    1.36807897920371
H           4.41853461769924   -2.00971324891841    1.30372285926821
C           1.20632196329078   -0.49860587566787   -3.11204182832123
C           0.10544227258171   -1.11808589121344   -2.73968667376803
H           1.52589128608824    0.42784729534457   -2.66206202616026
H           1.84598228267493   -0.89004254758186   -3.88689693745275
H          -0.53618371467834   -0.73274759705914   -1.96480085811954
H          -0.20818886374528   -2.04673061151267   -3.18809859017876
C          -1.97044913258721    2.67096911071189    1.90283826511429
C          -2.36072118580869    1.86708231769253    2.86988713068294
H          -1.21262183133059    3.42245728705088    2.05417309357078
H          -2.39264323891873    2.61379563424373    0.91265401321992
H          -1.94417099849276    1.92027102920100    3.86293164833740
H          -3.11810377650114    1.11655973747572    2.71105414140029
C          -1.11076413718071    2.61803545564339   -2.62611779721093
C          -0.35640281782677    3.08851003938129   -1.65446911186207
H          -2.06226436090382    3.06030109496334   -2.87619965547836
H          -0.81134380658943    1.77030929941175   -3.22125889624322
H          -0.65516047256754    3.93724790500634   -1.06046343499475
H           0.59493795417867    2.64817902003201   -1.40355309222310
C           3.36622214387976    2.72866326796880   -1.19813244832278
C           3.78108651330658    1.55214218516078   -1.61985718263394
H           3.40619471317438    3.60737572005861   -1.82167811776751
H           2.96444271619243    2.86609033135074   -0.20714143807719
H           4.18394037706756    1.41135184920362   -2.61003775998391
H           3.73709461621678    0.67352418237910   -0.99641084296300
C          -3.15950677744431    0.19375405122906   -0.70799414811661
C          -2.89320994578239   -0.66206412192692    0.25675073039992
H          -2.40031386574722    0.82559557534901   -1.14201853786836
H          -4.15254116603922    0.30639213752251   -1.11273275059056
H          -1.90227816852295   -0.77610353013845    0.66409472105506
H          -3.65612656115048   -1.29046482959790    0.68827516788407
C          -0.51740176983139   -1.49065238527396    3.25284760217902
C           0.72027989473874   -1.78790282564986    3.58927843928495
H          -0.82397048115138   -0.47575411124745    3.05739557997834
H          -1.27899992355216   -2.24752370951397    3.15502830888637
H           1.47898791696158   -1.02810978361936    3.68430896058066
H           1.03304689700561   -2.80127826128588    3.78345313366655
C           0.02378450942156   -3.42273346446874    0.07664414208726
C          -1.01398083686023   -3.71744220708054   -0.67777866028405
H           0.88231647411693   -4.07048989111299    0.14765688714406
H           0.06730258424034   -2.51967523120645    0.66363027408411
H          -1.05617373003734   -4.62289864133443   -1.26154937726442
H          -1.87082535781654   -3.06710564110453   -0.74994040485604
