21
-366.60838757190
C    -0.1927167    0.3933286   -2.4051701 
C    -1.4241238    0.7102666   -1.5517873 
H    -0.3298177    0.7608510   -3.4313335 
H     0.0008833   -0.6865012   -2.4644134 
H     0.7173560    0.8707816   -2.0120222 
H    -2.3059072    0.1943354   -1.9669678 
H    -1.6395458    1.7890424   -1.5976232 
C    -1.2972056    0.3285868   -0.0688515 
O    -0.3022118    1.1308336    0.5965447 
C    -1.0399868   -1.1618629    0.1576021 
H    -2.2381662    0.6059449    0.4324940 
H    -0.0679599   -1.4637381   -0.2579597 
H    -1.8196739   -1.7748066   -0.3187352 
H    -1.0371268   -1.3864036    1.2329824 
H     0.5506248    0.9619337    0.1515301 
C     1.9239885   -0.2508172    2.7197692 
C     2.3859434   -0.1504968    1.3460513 
H     1.8031072   -1.3041521    3.0052062 
H     2.6414644    0.2243447    3.4017267 
H     0.9529776    0.2584198    2.7948523 
N     2.7180970   -0.0498906    0.2361047 
