27
-499.44151043431
C    -0.5540779   -0.0569703    1.8949989 
C    -0.3488561    1.3855783    1.4351253 
H     0.0133104   -0.2666569    2.8125850 
H    -0.2205387   -0.7679803    1.1280989 
H    -1.6154856   -0.2603909    2.1048268 
H     0.7160690    1.5579203    1.2038667 
H    -0.6053892    2.0816169    2.2509358 
C    -1.1793505    1.7711278    0.2045454 
O    -0.9471330    0.8846857   -0.9029340 
C    -0.9434761    3.2224429   -0.2103327 
H    -2.2482094    1.6338384    0.4451536 
H     0.1169406    3.3814548   -0.4586956 
H    -1.2125427    3.9160665    0.6003901 
H    -1.5446377    3.4689664   -1.0954087 
H     0.0246924    0.8478907   -1.0660397 
C     3.3490434   -1.7853351   -0.5875728 
C     2.5285401   -0.6317211   -0.9018270 
H     2.6896610   -2.6599527   -0.4731365 
H     4.0677970   -1.9708211   -1.3968352 
H     3.8985813   -1.6143845    0.3476705 
N     1.8545378    0.2801474   -1.1516233 
C    -1.7291550   -2.1763000   -1.1361940 
C    -0.4857125   -2.8569925   -0.8275249 
H    -2.5137102   -2.4943343   -0.4363109 
H    -1.5814942   -1.0832695   -1.0480514 
H    -2.0467353   -2.4178988   -2.1595291 
N     0.5173310   -3.3887281   -0.5761814 
