27
-499.44085174593
C     1.2920277    1.1275605   -0.6276803 
C     1.8069211   -0.2594409   -1.0154489 
H     1.3344746    1.8119848   -1.4863821 
H     1.8870584    1.5774122    0.1796992 
H     0.2470494    1.0820304   -0.2936688 
H     2.8441629   -0.1906317   -1.3842526 
H     1.2076621   -0.6473750   -1.8548794 
C     1.7763556   -1.3056565    0.1117305 
O     0.4535883   -1.4910558    0.6415164 
C     2.6770163   -0.9612566    1.2904324 
H     2.1241901   -2.2649943   -0.3203496 
H     2.3674665   -0.0178146    1.7616711 
H     3.7215222   -0.8594189    0.9641890 
H     2.6247590   -1.7533710    2.0490733 
H    -0.1726247   -1.6043459   -0.1108204 
C    -3.2513387    0.4720526   -2.2339552 
C    -2.3024935   -0.5310501   -1.7910327 
H    -4.2213848    0.0058485   -2.4520045 
H    -3.3720375    1.2150956   -1.4301189 
H    -2.8803483    0.9685342   -3.1404762 
N    -1.5398736   -1.3233747   -1.4186998 
C    -1.1411097    0.6054036    2.4171802 
C    -2.0227473    1.2597871    1.4690462 
H    -0.4967255    1.3496298    2.9045488 
H    -1.7313251    0.0891958    3.1863083 
H    -0.5097219   -0.1320327    1.8864025 
N    -2.7225236    1.7772834    0.6979714 
