33
-632.26857418502
C    -1.9775569    1.4170886    1.6273102 
C    -1.3935974    2.0874815    0.3846079 
H    -2.9385624    1.8719873    1.9049335 
H    -1.3028309    1.5150514    2.4891578 
H    -2.1538116    0.3467926    1.4487350 
H    -1.2649008    3.1693482    0.5557494 
H    -2.0986141    1.9784188   -0.4569282 
C    -0.0399509    1.5140741   -0.0493753 
O     0.9674817    1.7141051    0.9591807 
C     0.4754547    2.1706951   -1.3230493 
H    -0.1604186    0.4263844   -0.2204669 
H     0.6849458    3.2342258   -1.1381156 
H    -0.2692028    2.1054506   -2.1290449 
H     1.4024921    1.6929921   -1.6682516 
H     0.8350159    1.0277859    1.6521805 
C    -1.1394509   -1.1556755   -2.6359759 
C    -1.9202311   -1.4124792   -1.4393966 
H    -1.5562576   -1.7097012   -3.4876368 
H    -1.1472459   -0.0829587   -2.8697247 
H    -0.1015339   -1.4769237   -2.4606184 
N    -2.5274964   -1.6303810   -0.4724276 
C     3.3184595   -0.2638006    0.0992893 
C     2.4446728   -1.2066242   -0.5716857 
H     4.1494700    0.0182770   -0.5609279 
H     2.7310816    0.6307876    0.3745854 
H     3.7211830   -0.7145151    1.0158511 
N     1.7290139   -1.9499840   -1.1083027 
C    -0.2698691   -2.9770793    1.5180228 
C     0.2940277   -1.7392417    2.0169212 
H    -0.2070010   -3.7609605    2.2842913 
H    -1.3187724   -2.8114403    1.2336808 
H     0.2862964   -3.2864487    0.6218491 
N     0.7477100   -0.7427323    2.4055822 
