39
-765.09897028312
C    -2.6529408   -2.3693442    1.2524849 
C    -1.3881367   -3.2230110    1.3580124 
H    -3.2734804   -2.4833061    2.1518890 
H    -3.2698808   -2.6522480    0.3879161 
H    -2.4005800   -1.3048540    1.1561738 
H    -1.6552393   -4.2870017    1.4710915 
H    -0.8369929   -2.9457826    2.2710277 
C    -0.4225192   -3.1022590    0.1683367 
O     0.0182536   -1.7448058   -0.0150475 
C    -1.0169083   -3.5559527   -1.1576127 
H     0.4590851   -3.7345618    0.3910577 
H    -1.8784251   -2.9334771   -1.4360714 
H    -1.3486218   -4.6018148   -1.0963574 
H    -0.2684111   -3.4766594   -1.9573841 
H     0.3239343   -1.3866597    0.8565927 
C     2.2178899   -0.0464305   -1.7153166 
C     2.6838593    0.9925264   -0.8172568 
H     1.6694472    0.4219812   -2.5447497 
H     3.0736543   -0.6073074   -2.1148713 
H     1.5454083   -0.7404860   -1.1831316 
N     3.0534294    1.8349817   -0.1059007 
C     1.2269749    4.4447753   -1.1373908 
C     0.8347007    3.4530839   -2.1219840 
H     0.4518352    4.5047841   -0.3611757 
H     2.1692598    4.1293695   -0.6687565 
H     1.3559906    5.4258554   -1.6131384 
N     0.5204688    2.6488525   -2.9006969 
C     1.4401570    2.1732251    2.7317504 
C     1.1202253    0.7871903    2.4623799 
H     0.5857182    2.7948990    2.4275541 
H     1.6536072    2.3164963    3.7991457 
H     2.3148132    2.4532998    2.1275327 
N     0.8628050   -0.3212540    2.2327343 
C    -1.6423225    0.8310095   -1.0342818 
C    -1.3158765    1.8834677   -0.0922101 
H    -1.1685198   -0.1156657   -0.7202304 
H    -2.7309356    0.6931018   -1.0813072 
H    -1.2657395    1.1127758   -2.0276642 
N    -1.0459868    2.7312059    0.6568563 
