45
-897.92472992500
C    -1.3539435   -3.7318963   -0.2753725 
C    -0.3648003   -3.4441946   -1.4043248 
H    -2.2279366   -4.2852911   -0.6460380 
H    -1.7152810   -2.8066884    0.1935502 
H    -0.8859979   -4.3349995    0.5168806 
H    -0.8544208   -2.8657000   -2.2060681 
H    -0.0352868   -4.3935109   -1.8585242 
C     0.8801223   -2.6686767   -0.9594919 
O     0.5364182   -1.3472002   -0.4981545 
C     1.8829811   -2.5041766   -2.0929076 
H     1.3612454   -3.2177453   -0.1271721 
H     1.4204652   -1.9724008   -2.9376946 
H     2.2274132   -3.4827862   -2.4538873 
H     2.7575777   -1.9306431   -1.7575708 
H     0.1592484   -1.4127894    0.4165794 
C    -1.1432526    0.4267721    4.0217055 
C    -0.7896241   -0.4737229    2.9461229 
H    -0.2173360    0.7903703    4.4910199 
H    -1.7003373    1.2736643    3.5953233 
H    -1.7648791   -0.0907138    4.7641990 
N    -0.4987402   -1.1798047    2.0722705 
C    -2.4904657    0.1864341   -0.6858734 
C    -2.4315069    1.1365335    0.4081459 
H    -2.6866697    0.7225042   -1.6238147 
H    -1.5288332   -0.3428953   -0.7767161 
H    -3.2865458   -0.5475862   -0.5028360 
N    -2.3874098    1.9008851    1.2831289 
C     1.2170941    1.3027125   -2.3578279 
C    -0.0597298    1.9664455   -2.5396666 
H     1.6268928    0.9947376   -3.3290938 
H     1.9136583    1.9943583   -1.8651323 
H     1.0814164    0.4133072   -1.7215957 
N    -1.0909305    2.4890698   -2.6673594 
C    -0.9492483    4.6190063    0.0000599 
C     0.3954567    4.0752749   -0.0016213 
H    -0.9251095    5.6921530    0.2311883 
H    -1.4016414    4.4605718   -0.9886716 
H    -1.5574992    4.0882772    0.7460773 
N     1.4705438    3.6334662   -0.0116895 
C     2.6880257    0.7783118    1.2926905 
C     2.3438572    0.8654931    2.6995281 
H     3.7517493    0.5279900    1.1803762 
H     2.0827205    0.0030110    0.7983245 
H     2.4892644    1.7462938    0.8073893 
N     2.0612754    0.9457784    3.8245446 
