45
-897.92357737293
C     0.8169867    0.7923984   -3.5551007 
C     0.6513594    2.1402011   -2.8502575 
H     1.7856710    0.7345232   -4.0700487 
H     0.0352957    0.6271275   -4.3096004 
H     0.7702388   -0.0400060   -2.8390458 
H     0.6164788    2.9532060   -3.5945887 
H     1.5307646    2.3429126   -2.2176102 
C    -0.5958588    2.2460359   -1.9576201 
O    -0.5236798    1.3030285   -0.8668760 
C    -1.9018139    1.9941892   -2.6989660 
H    -0.6227125    3.2657233   -1.5330292 
H    -1.9424457    0.9676583   -3.0882849 
H    -2.0063334    2.6845821   -3.5477826 
H    -2.7562849    2.1384943   -2.0250376 
H     0.0389262    1.7110634   -0.1630254 
C    -1.5879925   -1.7714686   -1.3703209 
C    -0.3445847   -2.5093695   -1.2597388 
H    -2.0189043   -1.9032244   -2.3717838 
H    -2.2933355   -2.1435554   -0.6140242 
H    -1.3894377   -0.7018703   -1.1963202 
N     0.6604586   -3.0854992   -1.1552850 
C     2.3647261   -0.4991589   -0.1615154 
C     1.9876867   -0.8598479    1.1906625 
H     3.2477501    0.1528585   -0.1457794 
H     2.5720677   -1.4079902   -0.7408712 
H     1.5314460    0.0382290   -0.6382165 
N     1.6749231   -1.1415315    2.2749435 
C    -1.7362152    0.0131294    1.9897041 
C    -1.7148814    0.9512117    3.0961033 
H    -1.7878776    0.5550593    1.0340960 
H    -0.8134426   -0.5831687    2.0020630 
H    -2.5864699   -0.6755560    2.0747384 
N    -1.6677498    1.7029488    3.9823409 
C     1.5815546    1.9865191    3.7574780 
C     1.2860230    2.1943300    2.3555314 
H     0.6947483    2.2478854    4.3519337 
H     1.8110837    0.9223125    3.9121126 
H     2.4396644    2.5995270    4.0629664 
N     1.0425820    2.3394614    1.2296487 
C     0.3087318   -4.2244979    2.0366812 
C    -1.0261809   -3.7191497    1.7731839 
H     0.2560300   -5.1602201    2.6087765 
H     0.8220280   -4.4003445    1.0813284 
H     0.8790088   -3.4740833    2.6017194 
N    -2.0900327   -3.3040737    1.5547175 
