45
-897.92484235788
C     2.6573407   -3.4368483    0.2722468 
C     1.3008515   -2.7379373    0.1756623 
H     2.7645861   -3.9498868    1.2374985 
H     3.4817336   -2.7133016    0.1860014 
H     2.7886165   -4.1890934   -0.5179888 
H     1.1732674   -2.0643156    1.0371962 
H     0.4851984   -3.4787515    0.2277744 
C     1.1247694   -1.9128496   -1.0966008 
O    -0.1142384   -1.1819000   -0.9564702 
C     1.1055443   -2.7485818   -2.3722365 
H     1.9584936   -1.1856983   -1.1592146 
H     0.2982723   -3.4944484   -2.3257274 
H     2.0607072   -3.2720050   -2.5195485 
H     0.9368778   -2.1075171   -3.2485322 
H    -0.1784516   -0.5765790   -1.7350040 
C     0.8453329    3.3122928   -2.8627574 
C     0.3323490    1.9584573   -2.8932089 
H     1.9294792    3.2792912   -2.6870341 
H     0.6285629    3.8254011   -3.8089240 
H     0.3671458    3.8500837   -2.0312989 
N    -0.0850898    0.8747388   -2.8977158 
C    -2.7107556    1.0537378   -0.8152958 
C    -1.8873378    2.1764863   -0.4091823 
H    -3.5842246    0.9862550   -0.1531765 
H    -3.0300430    1.1784405   -1.8578291 
H    -2.1279960    0.1262851   -0.7359760 
N    -1.2259370    3.0736237   -0.0770467 
C    -1.7277002    2.6753040    3.3170517 
C    -2.7857561    1.8388572    2.7815116 
H    -1.3682089    3.3516353    2.5292132 
H    -2.0991175    3.2645652    4.1657992 
H    -0.8999899    2.0322249    3.6486512 
N    -3.6213802    1.1603777    2.3419160 
C    -1.8935082   -1.7141573    1.7876586 
C    -0.9580809   -0.9449772    2.5865763 
H    -1.5301162   -1.7524445    0.7490765 
H    -1.9770762   -2.7360372    2.1807908 
H    -2.8780910   -1.2271888    1.8213396 
N    -0.2082771   -0.3166362    3.2152439 
C     1.4653523    1.1420776    0.8310976 
C     2.4093584    1.5708941   -0.1831712 
H     1.9834232    0.7262290    1.7039675 
H     0.8494416    1.9929604    1.1486872 
H     0.7973730    0.3733459    0.4118999 
N     3.1472989    1.9175904   -1.0129207 
