36
-600.41695695538
C    -1.2069208    2.7922359   -0.7018663 
C     0.2655702    2.3870866   -0.6656344 
H    -1.4340563    3.5480942    0.0629180 
H    -1.8525067    1.9206918   -0.5284010 
H    -1.4776000    3.2137946   -1.6818752 
H     0.5429245    2.0457737    0.3460191 
H     0.9043863    3.2592604   -0.8827837 
C     0.6126728    1.2683370   -1.6560332 
O    -0.1796705    0.0944457   -1.4143974 
C     2.1038330    0.9337010   -1.6356655 
H     0.3259703    1.5963336   -2.6707816 
H     2.4014436    0.5837608   -0.6358406 
H     2.7130767    1.8146202   -1.8866679 
H     2.3331333    0.1392181   -2.3593105 
H     0.0796117   -0.2565616   -0.5203330 
C     0.2163434    0.9451848    3.1793723 
C    -0.9091515    0.2108723    2.4516777 
H    -0.1027903    1.9489630    3.4923644 
H     1.0965104    1.0514754    2.5318866 
H     0.5301980    0.3958391    4.0797822 
H    -1.2506016    0.7985081    1.5834723 
H    -1.7814418    0.0999213    3.1151770 
C    -0.5147506   -1.1774732    1.9569288 
O     0.5823699   -0.9999208    1.0301561 
C    -1.6759214   -1.9115432    1.2924868 
H    -0.1457215   -1.7713199    2.8151266 
H    -2.0503230   -1.3335599    0.4347354 
H    -2.5019134   -2.0544458    2.0044530 
H    -1.3604779   -2.9010794    0.9336711 
H     0.8744050   -1.8866086    0.7184383 
C     0.3201982   -2.6636612   -2.9170641 
C     0.7924058   -3.0868645   -1.6135773 
H    -0.0238368   -1.6199375   -2.8106339 
H     1.1323805   -2.7148276   -3.6541771 
H    -0.5091193   -3.3015919   -3.2499882 
N     1.1493699   -3.3687225   -0.5436347 
