36
-600.41480205437
C    -1.3816445    3.1680419   -2.5593321 
C    -1.0093481    2.2634524   -1.3827922 
H    -0.8834723    4.1437148   -2.4770027 
H    -2.4665161    3.3512866   -2.5919531 
H    -1.0872676    2.7281783   -3.5223057 
H    -1.2205076    2.7880737   -0.4372721 
H     0.0717842    2.0463240   -1.3903366 
C    -1.7664629    0.9308971   -1.3640244 
O    -1.4381002    0.1734233   -0.1763903 
C    -1.4432863    0.0324894   -2.5471400 
H    -2.8537036    1.1397726   -1.3524052 
H    -0.3618177   -0.1625373   -2.5928391 
H    -1.7537460    0.4986337   -3.4912060 
H    -1.9668663   -0.9276034   -2.4497466 
H    -1.6287689    0.7302973    0.6125437 
C     1.0579457   -3.4571721    2.1965375 
C     0.7417327   -2.0350579    1.7287101 
H     0.5429336   -3.6862432    3.1398815 
H     2.1378197   -3.5889508    2.3665527 
H     0.7427997   -4.2085716    1.4593171 
H     0.9678821   -1.3214713    2.5370595 
H    -0.3357688   -1.9349922    1.5156617 
C     1.5225589   -1.5899280    0.4843548 
O     1.2965773   -0.1964542    0.2189487 
C     1.2049859   -2.4314382   -0.7508497 
H     2.6027155   -1.6663376    0.7011445 
H     0.1268930   -2.3952746   -0.9685813 
H     1.4919525   -3.4833421   -0.6103211 
H     1.7490078   -2.0409036   -1.6211897 
H     0.3262871   -0.0872821    0.0306720 
C     1.3247293    1.8907447    2.6260987 
C    -0.1127698    1.8588463    2.4421869 
H     1.7626080    1.2411518    1.8479880 
H     1.7020824    2.9162574    2.5185051 
H     1.5927096    1.5112481    3.6209986 
N    -1.2559585    1.8007267    2.2385270 
