36
-600.41471904420
C     1.8483206    2.2569956    0.8816612 
C     0.8097868    2.2107963    2.0033447 
H     2.8214792    2.5962388    1.2631823 
H     1.5519145    2.9436733    0.0768890 
H     1.9968879    1.2665781    0.4305306 
H     0.6718041    3.2189674    2.4297257 
H     1.1809184    1.5777787    2.8258645 
C    -0.5709106    1.6703999    1.5898504 
O    -0.4987773    0.2891024    1.2011002 
C    -1.2485470    2.5088281    0.5077730 
H    -1.2083242    1.6780628    2.4904255 
H    -0.6849136    2.4637473   -0.4348265 
H    -1.3225788    3.5622197    0.8154333 
H    -2.2621036    2.1325952    0.3147758 
H    -0.2541686    0.2389176    0.2398549 
C    -1.1832801   -2.6569173   -0.6693811 
C    -0.5826775   -2.2808097   -2.0251286 
H    -1.0331837   -3.7261466   -0.4653610 
H    -2.2639690   -2.4623468   -0.6325840 
H    -0.7229115   -2.0877826    0.1490076 
H    -1.1215898   -2.8019943   -2.8339559 
H     0.4606400   -2.6323590   -2.0788851 
C    -0.5889256   -0.7806673   -2.3519642 
O     0.2637191   -0.0341013   -1.4512998 
C    -1.9643767   -0.1352501   -2.2848074 
H    -0.1870496   -0.6582446   -3.3752176 
H    -2.3676641   -0.1819148   -1.2643088 
H    -2.6620576   -0.6484888   -2.9610721 
H    -1.9060661    0.9201670   -2.5814792 
H     1.1232383   -0.5051276   -1.3766557 
C     1.8554573   -1.6845558    2.0718255 
C     2.2711349   -1.6353966    0.6841881 
H     0.9532734   -1.0536256    2.1653851 
H     1.6222879   -2.7165109    2.3651505 
H     2.6494730   -1.2943697    2.7221836 
N     2.5537397   -1.5584586   -0.4412243 
