42
-733.24319875767
C     0.5609013   -2.7274786    0.4351736 
C     1.3138094   -3.0425271   -0.8578350 
H     0.9849724   -3.2880548    1.2787503 
H    -0.5031255   -2.9924578    0.3612124 
H     0.6264681   -1.6607853    0.6857832 
H     1.2178871   -4.1138326   -1.1008337 
H     2.3899545   -2.8578442   -0.7089538 
C     0.8637724   -2.2432546   -2.0890454 
O     1.0867633   -0.8247445   -1.9164676 
C    -0.6073690   -2.4110861   -2.4391731 
H     1.4733326   -2.5791482   -2.9486241 
H    -1.2484421   -2.0350874   -1.6298946 
H    -0.8444783   -3.4702666   -2.6100980 
H    -0.8469595   -1.8498413   -3.3520197 
H     1.9843919   -0.6864048   -1.5304485 
C    -1.3784295    3.0408546    1.2095709 
C    -1.9623316    2.5189580   -0.1051884 
H    -2.1495326    3.5501433    1.8040904 
H    -0.5675325    3.7631885    1.0395980 
H    -0.9763419    2.2200561    1.8189620 
H    -2.3706169    3.3558848   -0.6940942 
H    -2.8105795    1.8496211    0.1106679 
C    -0.9737376    1.7523504   -0.9895078 
O    -0.5001639    0.6241031   -0.2363211 
C     0.1938484    2.6029145   -1.4894359 
H    -1.5333265    1.3844342   -1.8714321 
H     0.7920269    2.9881022   -0.6519026 
H    -0.1682274    3.4592042   -2.0779900 
H     0.8529951    2.0022449   -2.1306269 
H     0.0538571    0.0634604   -0.8477153 
C    -1.9545827   -0.7322875    2.2445183 
C    -0.7883487   -0.5992092    3.0983458 
H    -2.2654906   -1.7839606    2.1896850 
H    -2.7859542   -0.1364345    2.6449144 
H    -1.6945559   -0.3681584    1.2353511 
N     0.1593011   -0.4805934    3.7615265 
C     2.2060475    1.1989170    1.7727225 
C     2.8127038    0.4754764    0.6750807 
H     1.1958559    1.4998160    1.4586502 
H     2.1038207    0.5532988    2.6557578 
H     2.8006721    2.0863763    2.0257949 
N     3.2567450   -0.1059471   -0.2285482 
