42
-733.24385256889
C     3.1907027    3.5460956   -0.8236365 
C     2.5060145    2.2292998   -1.1950107 
H     4.2472681    3.5377789   -1.1244199 
H     3.1563676    3.7192984    0.2627684 
H     2.7148345    4.4066263   -1.3142467 
H     3.0721242    1.3874290   -0.7649378 
H     2.5096456    2.0860767   -2.2881120 
C     1.0601079    2.1258484   -0.7017016 
O     0.5349348    0.8083351   -0.9820663 
C     0.1130381    3.1206234   -1.3536457 
H     1.0491883    2.2844545    0.3949525 
H     0.1212999    2.9928441   -2.4463666 
H     0.4073465    4.1522512   -1.1209084 
H    -0.9123733    2.9653403   -0.9923124 
H     1.1081303    0.1459100   -0.5217257 
C    -2.0993726   -2.2254348    2.4709200 
C    -1.9489568   -1.4980188    1.1338518 
H    -2.0468242   -3.3150874    2.3347812 
H    -3.0691398   -2.0005064    2.9410177 
H    -1.3128229   -1.9381477    3.1834044 
H    -2.6682776   -1.9051829    0.4068906 
H    -0.9473827   -1.6825172    0.7138710 
C    -2.1648075    0.0205969    1.1998317 
O    -2.1043702    0.5874464   -0.1155861 
C    -1.1897436    0.7220923    2.1452794 
H    -3.1956386    0.2109350    1.5472144 
H    -0.1490424    0.4993874    1.8627491 
H    -1.3333837    0.4010288    3.1866538 
H    -1.3390647    1.8093292    2.0999953 
H    -1.1481811    0.6462732   -0.3779289 
C     1.3739141   -3.7409705    0.9608391 
C     1.6711167   -2.3533933    0.6691157 
H     0.7370174   -4.1315940    0.1511034 
H     2.3015259   -4.3255731    1.0190132 
H     0.8380322   -3.8160229    1.9163512 
N     1.8872448   -1.2404452    0.4186084 
C    -1.3254391   -1.2835729   -2.6706819 
C    -0.8481087   -2.5455162   -2.1384034 
H    -0.4828346   -0.5878219   -2.7886954 
H    -1.8177944   -1.4413864   -3.6393776 
H    -2.0290521   -0.8212764   -1.9593627 
N    -0.4672434   -3.5528330   -1.7000859 
