42
-733.24226615878
C     2.6717226   -1.1501158   -0.9676085 
C     1.1720231   -1.2676232   -1.2022076 
O     0.9111471   -0.8065377   -2.5419165 
C     0.6271356   -2.6899313   -0.9968427 
H     0.6505037   -0.6026786   -0.4879548 
H     0.7871531   -2.9731125    0.0572807 
C     1.2354556   -3.7402810   -1.9271414 
H    -0.4647185   -2.6523572   -1.1421003 
H    -0.0562273   -0.6235737   -2.5938892 
O    -1.5449277    1.9912587    1.7967403 
H    -0.8239117    2.2725750    1.1832120 
C    -0.9370135    1.3330990    2.9198686 
H    -1.7802026    1.1040941    3.5945763 
C     0.0346028    2.2714690    3.6330330 
C    -0.2691835    0.0128454    2.5141269 
H     0.5615808    0.2397136    1.8235781 
C    -1.2285264   -0.9861973    1.8708308 
H     0.1880737   -0.4327535    3.4132758 
N    -1.7740829    0.1022701   -2.2163809 
C    -2.5242659    0.6158959   -1.4937437 
H    -2.9273058    1.4693921    0.3736311 
C    -3.4485921    1.2548553   -0.5792280 
H    -3.8130869    2.1968373   -1.0105539 
H    -4.3047959    0.5934361   -0.3901090 
N     0.3652148    2.6127890   -0.2394910 
C     0.8359232    2.4802995   -1.2923278 
H     1.4525160    1.1977773   -2.8080214 
C     1.4208018    2.2846310   -2.6030496 
H     0.8050774    2.7796003   -3.3658457 
H     2.4352263    2.7042173   -2.6317759 
H     2.9412310   -1.5379520    0.0247490 
H     2.9903879   -0.1002866   -1.0222943 
H     3.2297825   -1.7147276   -1.7269228 
H     2.3019930   -3.9037362   -1.7167704 
H     1.1423922   -3.4252728   -2.9752958 
H     0.7255982   -4.7070504   -1.8136213 
H     0.4327323    1.8087770    4.5481315 
H    -0.4691099    3.2083224    3.9057669 
H     0.8835460    2.5149783    2.9762685 
H    -0.7270589   -1.9376371    1.6486892 
H    -1.6292095   -0.5956337    0.9265970 
H    -2.0796017   -1.2016754    2.5347368 
