48
-866.07092524302
C    -0.5682926   -3.5728925   -1.8083150 
C     0.1263510   -2.4180371   -1.0998738 
O    -0.9065967   -1.5092785   -0.6724663 
C     1.0108039   -2.8620932    0.0755851 
H     0.7831605   -1.9049716   -1.8272060 
H     1.8340090   -3.4743243   -0.3283748 
C     0.2768126   -3.6251869    1.1800581 
H     1.4851919   -1.9594875    0.4954320 
H    -0.4907658   -0.7947597   -0.1237580 
O     0.1473109    0.4449126    1.0049473 
H    -0.3462297    1.3004026    0.9195816 
C     0.0004748   -0.0145408    2.3701791 
H     0.5411575   -0.9747438    2.3915944 
C    -1.4695085   -0.2558885    2.6967914 
C     0.6746508    0.9534902    3.3451558 
H     0.1482372    1.9216482    3.2957749 
C     2.1663625    1.1475720    3.0768758 
H     0.5221576    0.5688962    4.3669938 
C    -1.2709365   -0.0358172   -3.4845265 
H    -2.1911985   -0.2256203   -4.0531094 
H    -1.3306583   -0.5371763   -2.4992194 
C    -1.0877362    1.3881895   -3.2920457 
H    -0.4065796   -0.4422743   -4.0271245 
N    -0.9338603    2.5281331   -3.1203181 
N     2.0694531   -0.1112418   -3.2009477 
C     2.0581468    0.7091901   -2.3769507 
H     1.6780154    1.2734354   -0.3946450 
C     2.0183711    1.7238780   -1.3401491 
H     3.0139056    2.1656953   -1.2002629 
H     1.3064494    2.5091243   -1.6291195 
N    -1.1228725    2.9334570    0.5755426 
C    -1.5181665    3.7537754   -0.1433115 
H    -3.0906297    4.8714630   -0.9675295 
C    -2.0015765    4.7662532   -1.0605562 
H    -1.5275179    5.7326863   -0.8436732 
H    -1.7475870    4.4444364   -2.0817868 
H     0.1668603   -4.3079794   -2.1650129 
H    -1.1332469   -3.2052641   -2.6757811 
H    -1.2755547   -4.0770274   -1.1355536 
H    -0.0708293   -4.6082965    0.8331769 
H    -0.6035950   -3.0657338    1.5253030 
H     0.9336259   -3.7954080    2.0448300 
H    -1.5788146   -0.7042620    3.6948083 
H    -1.9184040   -0.9334721    1.9581419 
H    -2.0280706    0.6921292    2.6838189 
H     2.6147746    1.8429945    3.7997789 
H     2.3342406    1.5513519    2.0695432 
H     2.7087050    0.1926631    3.1477043 
