48
-866.07470155208
C     3.4677107   -1.2293418   -0.5136420 
C     3.1639838   -0.0802196    0.4486227 
H     3.9349689   -2.0689030    0.0191163 
H     4.1535803   -0.9250627   -1.3169424 
H     2.5458001   -1.6034477   -0.9791939 
H     4.0969101    0.2893855    0.9061877 
H     2.5383841   -0.4548574    1.2741838 
C     2.4382054    1.1189078   -0.1827484 
O     1.1637194    0.7374457   -0.7253458 
C     3.2191150    1.7919697   -1.3032427 
H     2.2742501    1.8629548    0.6223237 
H     3.3696971    1.1022812   -2.1451747 
H     4.2033076    2.1262649   -0.9461635 
H     2.6714770    2.6677983   -1.6769518 
H     0.6571161    0.2286306   -0.0253445 
C    -0.0494058   -1.6042927    3.9313009 
C    -1.2934426   -1.0714896    3.2186523 
H    -0.3177181   -2.3817017    4.6598918 
H     0.4805090   -0.8108099    4.4770895 
H     0.6514435   -2.0441629    3.2085212 
H    -1.9660515   -0.5756104    3.9383813 
H    -1.8657042   -1.9116356    2.7928622 
C    -1.0030928   -0.0834974    2.0815565 
O    -0.2154080   -0.7306669    1.0486706 
C    -0.2401959    1.1581553    2.5176505 
H    -1.9621684    0.2319563    1.6378751 
H     0.7695495    0.9013947    2.8673439 
H    -0.7707178    1.6665687    3.3342245 
H    -0.1468738    1.8631554    1.6806587 
H    -0.8253529   -1.3157090    0.5335596 
C    -1.3085138    2.5716734   -1.6610404 
C    -2.3535822    2.0580122   -0.7966983 
H    -1.2175481    3.6593236   -1.5374566 
H    -0.3493174    2.0878384   -1.4033263 
H    -1.5533572    2.3401140   -2.7063624 
N    -3.1839154    1.6358239   -0.1003513 
C     0.1431754   -1.2463234   -2.9954800 
C    -1.0654912   -0.5889464   -3.4537709 
H     0.7802580   -1.5112499   -3.8498012 
H     0.6938467   -0.5700736   -2.3168322 
H    -0.1233957   -2.1570868   -2.4427303 
N    -2.0334713   -0.0474033   -3.8043682 
C    -4.3441413   -1.0014310   -1.5867687 
C    -3.1432004   -1.5493730   -0.9921502 
H    -5.1228348   -1.7722275   -1.6567699 
H    -4.6918680   -0.1625559   -0.9686093 
H    -4.0982348   -0.6218714   -2.5891265 
N    -2.1720046   -1.9797038   -0.5222804 
