48
-866.07626728851
C    -3.1357283   -0.5173859    2.7334697 
C    -2.4780292    0.8537274    2.5784148 
H    -3.7284457   -0.5705484    3.6572896 
H    -2.3856118   -1.3191875    2.7721696 
H    -3.8079242   -0.7304422    1.8889131 
H    -1.8138374    1.0572944    3.4349201 
H    -3.2512991    1.6397462    2.5809219 
C    -1.6610257    1.0019755    1.2934731 
O    -0.5555280    0.0612800    1.2872597 
C    -1.0714307    2.3953371    1.1399942 
H    -2.3053369    0.7842646    0.4235754 
H    -0.3916166    2.6187693    1.9760127 
H    -1.8687771    3.1505062    1.1323913 
H    -0.5085049    2.4796508    0.2008398 
H    -0.8977652   -0.8155746    0.9816743 
C     2.8104850   -0.4567094    2.1313192 
C     3.4871608    0.3620265    1.0328527 
H     3.5306403   -1.1152825    2.6366791 
H     2.0051059   -1.0840422    1.7266604 
H     2.3584337    0.1968303    2.8917926 
H     3.9491125   -0.3069334    0.2863601 
H     4.3063980    0.9610154    1.4646404 
C     2.5353387    1.3111958    0.2946793 
O     1.4875644    0.5847906   -0.3681865 
C     3.2574699    2.1379786   -0.7608893 
H     2.0768276    1.9928462    1.0371559 
H     3.6842968    1.4782856   -1.5311991 
H     4.0754528    2.7207064   -0.3147610 
H     2.5621899    2.8333599   -1.2502327 
H     0.7440862    0.4098022    0.2815402 
C    -0.2515299    1.0140434   -3.0381547 
C    -1.5952531    0.8182944   -2.5289495 
H    -0.1818663    1.9789841   -3.5582207 
H     0.4656555    0.9938818   -2.1988046 
H    -0.0044452    0.2027067   -3.7361408 
N    -2.6672077    0.6539588   -2.1087346 
C     1.5871022   -2.4745298   -1.3270821 
C     0.7254857   -2.4653563   -2.4933212 
H     1.7460117   -1.4362601   -0.9833992 
H     1.1059705   -3.0401504   -0.5183146 
H     2.5532699   -2.9360840   -1.5711892 
N     0.0287485   -2.4344511   -3.4243982 
C    -3.0397930   -2.5659379   -2.0904968 
C    -2.2177755   -2.3844440   -0.9127254 
H    -3.6401997   -1.6590559   -2.2443729 
H    -2.3819223   -2.7070018   -2.9603377 
H    -3.6935747   -3.4396870   -1.9694180 
N    -1.5483781   -2.2341938    0.0243294 
