48
-866.07270835582
C     1.7554195    3.0637155   -3.0418713 
C     0.9956573    2.1538619   -2.0761406 
H     1.1330761    3.9168004   -3.3441236 
H     2.0429040    2.5219977   -3.9556270 
H     2.6718732    3.4675603   -2.5896814 
H     0.0400644    1.8447168   -2.5271146 
H     0.7443665    2.7039224   -1.1538427 
C     1.7635337    0.8924225   -1.6900381 
O     0.8579619    0.0760757   -0.9104859 
C     3.0343503    1.1654820   -0.8927696 
H     2.0226844    0.3409902   -2.6141454 
H     2.8022692    1.7476215    0.0111515 
H     3.7641714    1.7280433   -1.4915589 
H     3.5079933    0.2248461   -0.5812488 
H     1.3020100   -0.7911069   -0.7282318 
C    -2.8285464    2.1463474    1.4121178 
C    -2.2529909    1.6398763    0.0881947 
H    -2.5253219    3.1848522    1.6045040 
H    -2.4783764    1.5342834    2.2577030 
H    -3.9269545    2.1179581    1.4187591 
H    -1.1642037    1.8052013    0.0740326 
H    -2.6651915    2.2123464   -0.7588668 
C    -2.5023786    0.1488986   -0.1695835 
O    -1.8371225   -0.2830684   -1.3657696 
C    -3.9754510   -0.1942678   -0.3374577 
H    -2.1058486   -0.4170003    0.7000255 
H    -4.3992794    0.3666364   -1.1833915 
H    -4.5475062    0.0461627    0.5683268 
H    -4.0972755   -1.2664116   -0.5429128 
H    -0.8682607   -0.0927755   -1.2635395 
C     0.5068397    0.2735490    2.3615519 
C     1.8549386   -0.0762299    2.7678371 
H     0.4952575    0.4729169    1.2783931 
H    -0.1676462   -0.5699989    2.5679475 
H     0.1610429    1.1626707    2.9050841 
N     2.9351937   -0.3760822    3.0771168 
C    -1.2930464   -3.2939340   -0.4893119 
C    -1.0049451   -3.0906609    0.9173134 
H    -2.1065517   -4.0219853   -0.6083004 
H    -1.5848941   -2.3318034   -0.9524751 
H    -0.3937008   -3.6676206   -0.9970961 
N    -0.7620779   -2.9152935    2.0415470 
C     2.6221738   -3.4835980    2.1316322 
C     2.3334143   -2.8494151    0.8627402 
H     1.6750433   -3.6334535    2.6695310 
H     3.1160379   -4.4512200    1.9724136 
H     3.2663706   -2.8199878    2.7248180 
N     2.0829223   -2.3338420   -0.1471566 
