54
-998.90087100339
C     0.7826830    1.1888703   -3.5338139 
C     0.9395652   -0.3075195   -3.2553864 
H     0.0352886    1.3619027   -4.3204613 
H     1.7242784    1.6453243   -3.8699470 
H     0.4542613    1.7260172   -2.6332011 
H     1.3115408   -0.8244979   -4.1536000 
H    -0.0416931   -0.7554139   -3.0347446 
C     1.8749954   -0.6518493   -2.0968337 
O     1.3156850   -0.0545325   -0.9017995 
C     3.3124024   -0.1796512   -2.2921154 
H     1.8647330   -1.7481014   -1.9769179 
H     3.3625641    0.9140439   -2.3862809 
H     3.7450256   -0.6283828   -3.1981823 
H     3.9351830   -0.4775755   -1.4371226 
H     1.8776454   -0.2895939   -0.1208764 
C    -3.4146580   -1.6583069   -0.2918690 
C    -2.6734040   -0.9631441   -1.4350399 
H    -3.5650154   -2.7226244   -0.5167709 
H    -4.4037051   -1.2139572   -0.1120161 
H    -2.8444105   -1.5925950    0.6453615 
H    -3.3157698   -0.9230265   -2.3307452 
H    -1.7922938   -1.5593732   -1.7185970 
C    -2.1997244    0.4631675   -1.1183721 
O    -1.2039481    0.4638355   -0.0761530 
C    -3.3194129    1.3942098   -0.6727487 
H    -1.7441794    0.8767635   -2.0370472 
H    -3.7489269    1.0588462    0.2815454 
H    -4.1249879    1.4212707   -1.4198523 
H    -2.9391741    2.4155078   -0.5355215 
H    -0.3318530    0.1714883   -0.4627996 
C     2.9275936   -0.0166624    4.0603371 
C     2.7942147   -0.2703863    2.6416870 
H     2.2973008   -0.7285634    4.6104400 
H     3.9766208   -0.1177700    4.3682096 
H     2.5710431    1.0035282    4.2657342 
N     2.6785724   -0.4682323    1.5038856 
C    -0.0497574   -2.6370632    1.0399144 
C     0.0281932   -3.1820099   -0.3030718 
H    -0.6000250   -3.3140540    1.7053878 
H     0.9547039   -2.4760526    1.4503363 
H    -0.5653812   -1.6672326    1.0071738 
N     0.0864131   -3.5982254   -1.3874646 
C     0.8958448    2.8666202    0.5433589 
C     1.1262607    2.7803168    1.9722871 
H    -0.0613152    2.3788019    0.2963762 
H     0.8789946    3.9166858    0.2229989 
H     1.6809216    2.3256444   -0.0021174 
N     1.2893137    2.7005677    3.1210875 
C    -1.5810104    0.6865385    3.1393813 
C    -0.7526580   -0.3781080    3.6730090 
H    -1.5473199    0.6622352    2.0366514 
H    -2.6193933    0.5611938    3.4745612 
H    -1.1994670    1.6557240    3.4872993 
N    -0.0823583   -1.2345989    4.0844457 
