54
-998.90214797471
C    -1.1252306   -0.1237171    4.2656613 
C    -0.2248035   -0.0658887    3.0303903 
H    -1.0482358   -1.0987928    4.7668284 
H    -2.1793955    0.0337061    3.9912147 
H    -0.8574643    0.6452230    5.0038698 
H    -0.4627424   -0.9091114    2.3629725 
H     0.8343363   -0.1847513    3.3131898 
C    -0.3778810    1.2266071    2.2215082 
O     0.3297179    1.1338468    0.9719902 
C     0.1568711    2.4564988    2.9391088 
H    -1.4564953    1.3716000    2.0159925 
H     1.2255378    2.3294398    3.1679906 
H    -0.3851613    2.6357571    3.8771483 
H     0.0423113    3.3475452    2.3065407 
H     0.1034058    0.2675819    0.5333250 
C     3.2488765   -2.6062481   -0.0259627 
C     1.9026745   -1.9861776    0.3512318 
H     3.9579332   -2.5376246    0.8103243 
H     3.6923726   -2.0841045   -0.8864916 
H     3.1532433   -3.6689381   -0.2898540 
H     2.0562613   -0.9534364    0.6994553 
H     1.4463298   -2.5366502    1.1915742 
C     0.9119132   -1.9459375   -0.8080861 
O    -0.2507252   -1.1973781   -0.3556067 
C     0.4735677   -3.3225254   -1.2943451 
H     1.3723266   -1.3905709   -1.6428723 
H     0.0400583   -3.9046342   -0.4667435 
H     1.3229999   -3.8851853   -1.7060686 
H    -0.2808512   -3.2271431   -2.0874539 
H    -0.7399991   -0.9120984   -1.1713430 
C    -2.9582009   -2.0932592    1.1466939 
C    -3.3637046   -0.7024224    1.0477299 
H    -2.9146233   -2.4004359    2.2002064 
H    -3.6735593   -2.7366505    0.6172548 
H    -1.9609500   -2.1999858    0.6908901 
N    -3.6644402    0.4171823    0.9616490 
C    -1.9142768    2.5520913   -0.9346410 
C    -1.2380825    3.0692848   -2.1076715 
H    -1.1649856    2.1390404   -0.2380187 
H    -2.4800103    3.3469525   -0.4317808 
H    -2.6075879    1.7482052   -1.2107496 
N    -0.6673302    3.4728449   -3.0380110 
C    -0.0865626    0.7852523   -4.8705473 
C    -0.7235920    0.1701772   -3.7255609 
H    -0.1521323    1.8779073   -4.7615924 
H     0.9720238    0.4922364   -4.8841736 
H    -0.5809491    0.4695277   -5.7986519 
N    -1.2313924   -0.3116780   -2.7989647 
C     2.2152769    2.5499272   -1.1843480 
C     2.3452993    1.4251736   -2.0907131 
H     1.6699820    3.3603463   -1.6870490 
H     1.6512404    2.2340940   -0.2905314 
H     3.2088133    2.9091952   -0.8841897 
N     2.4379926    0.5181010   -2.8127188 
