54
-998.90135347672
C    -1.0581453   -3.6100659   -0.8194206 
C    -1.3556525   -3.2634682    0.6388942 
H    -0.8582191   -4.6828953   -0.9447346 
H    -0.1832814   -3.0621199   -1.1915933 
H    -1.9105945   -3.3500789   -1.4644021 
H    -0.5253059   -3.5852062    1.2907373 
H    -2.2463538   -3.8129817    0.9832626 
C    -1.5961228   -1.7749736    0.8732882 
O    -0.3805258   -1.0679173    0.5566162 
C    -2.0363726   -1.4628210    2.3011970 
H    -2.3865011   -1.4383056    0.1746738 
H    -1.2846968   -1.8208951    3.0210538 
H    -2.9948376   -1.9497715    2.5343784 
H    -2.1601852   -0.3791382    2.4343264 
H    -0.6297291   -0.1063718    0.4328729 
C    -1.9940002    0.2500699   -2.2843235 
C    -2.7411734    1.2433569   -1.3934110 
H    -2.6956270   -0.4099135   -2.8133317 
H    -1.3162167   -0.3879340   -1.7026542 
H    -1.3944764    0.7785806   -3.0391440 
H    -3.3527639    0.7114825   -0.6441518 
H    -3.4446965    1.8283747   -2.0065334 
C    -1.8429328    2.2320893   -0.6567639 
O    -1.0948631    1.4994472    0.3479150 
C    -2.6337746    3.3502130    0.0137961 
H    -1.1207181    2.6639051   -1.3723249 
H    -3.3722031    2.9326910    0.7139708 
H    -3.1642946    3.9533260   -0.7373523 
H    -1.9640028    4.0174048    0.5738264 
H    -0.4157589    2.1144561    0.7204651 
C     2.4652058   -2.8735777    0.5469330 
C     2.6533785   -3.1843884   -0.8594545 
H     1.5407028   -2.2881679    0.6719472 
H     2.3885094   -3.7989205    1.1334873 
H     3.3143486   -2.2826366    0.9156866 
N     2.7917534   -3.4107697   -1.9913361 
C     1.8056132   -0.1203296   -1.8724243 
C     1.5140148    1.2699352   -2.1627135 
H     1.8822407   -0.7052173   -2.7976542 
H     2.7576097   -0.1869220   -1.3289687 
H     1.0114511   -0.5507539   -1.2437514 
N     1.2922984    2.3893787   -2.3872868 
C     1.6636019    0.3050135    2.6951364 
C     2.7617034    0.4823048    1.7644674 
H     1.2376256    1.2844289    2.9502023 
H     0.8813379   -0.3076735    2.2152480 
H     2.0149388   -0.1908743    3.6097655 
N     3.6292612    0.6110978    1.0004900 
C     3.1726575    3.8081178   -0.1438288 
C     1.9586382    3.4910372    0.5777960 
H     3.6286277    4.7232887    0.2562611 
H     3.8737743    2.9677682   -0.0389215 
H     2.9267616    3.9396818   -1.2062009 
N     0.9879709    3.2176397    1.1539872 
