51
-834.22494756118
C    -1.1611232    2.1991133   -2.5732042 
C     0.3460541    2.1086351   -2.3402171 
H    -1.4804189    3.2381568   -2.7337817 
H    -1.7118326    1.7998473   -1.7107888 
H    -1.4605621    1.6149050   -3.4565537 
H     0.6431549    2.7571679   -1.4992953 
H     0.8895408    2.4796204   -3.2247558 
C     0.8261108    0.6858302   -2.0392095 
O     0.1633046    0.1629972   -0.8701921 
C     2.3419530    0.5995355   -1.8836811 
H     0.5055916    0.0211233   -2.8598365 
H     2.6789489    1.2391384   -1.0543923 
H     2.8509047    0.9291209   -2.8012280 
H     2.6462502   -0.4345506   -1.6721492 
H     0.4875923    0.6743454   -0.0701173 
C    -1.4137462   -2.8813339    1.6210393 
C    -1.9005845   -2.5248322    0.2177909 
H    -2.1148379   -2.5286200    2.3902081 
H    -0.4374210   -2.4210413    1.8225403 
H    -1.3051715   -3.9706448    1.7392354 
H    -2.0010330   -1.4305936    0.1188031 
H    -2.9049280   -2.9473737    0.0478402 
C    -0.9713303   -3.0186620   -0.8994238 
O     0.3644259   -2.5253217   -0.7318208 
C    -1.5113417   -2.6587743   -2.2832967 
H    -0.8807062   -4.1169131   -0.8214491 
H    -1.6168304   -1.5672519   -2.3753689 
H    -2.4980379   -3.1135392   -2.4573766 
H    -0.8230604   -3.0088761   -3.0642964 
H     0.3177384   -1.5256112   -0.7538739 
C     0.1594473    4.2932588    1.1083568 
C    -0.7402166    3.0959839    1.4120274 
H    -0.3808902    5.0618577    0.5385878 
H     1.0355367    3.9848578    0.5229085 
H     0.5264817    4.7577958    2.0359331 
H    -1.1501173    2.6787561    0.4773863 
H    -1.6042984    3.4136219    2.0170634 
C    -0.0292434    1.9706164    2.1581267 
O     1.0412910    1.5041379    1.3041363 
C    -0.9701550    0.8266564    2.5242066 
H     0.4257137    2.3827577    3.0788810 
H    -1.4380606    0.4128525    1.6191881 
H    -1.7657695    1.1781204    3.1972823 
H    -0.4261980    0.0181781    3.0309858 
H     1.5605748    0.8167437    1.7932216 
C     2.5149683   -3.1661039    1.3895076 
C     2.4438220   -1.8260046    1.9327212 
H     1.7880176   -3.2235302    0.5557314 
H     3.5285647   -3.3733202    1.0214043 
H     2.2538458   -3.9015891    2.1619120 
N     2.3580808   -0.7412440    2.3392834 
