51
-834.22133319168
C     1.6414515    2.2730893    1.0191889 
C     0.6155678    2.0256023   -0.0864698 
H     2.6078857    1.8122227    0.7716983 
H     1.3020517    1.8415057    1.9733197 
H     1.8200379    3.3452942    1.1838972 
H     0.5210446    0.9435979   -0.2606768 
H     0.9639373    2.4632341   -1.0370031 
C    -0.7853806    2.5700188    0.2253250 
O    -1.7517108    2.0673998   -0.7053283 
C    -0.8635051    4.0890423    0.1808146 
H    -1.0590002    2.2350547    1.2478121 
H    -0.5862690    4.4542556   -0.8198947 
H    -0.1846865    4.5443960    0.9145676 
H    -1.8858158    4.4250668    0.3986390 
H    -1.7513473    1.0731770   -0.6247802 
C     3.8008771   -1.7646663    0.1069857 
C     2.4256276   -1.3269075   -0.3995779 
H     4.3796646   -0.9025767    0.4656614 
H     4.3834324   -2.2464352   -0.6928812 
H     3.7221205   -2.4777128    0.9395437 
H     2.5453325   -0.5379442   -1.1590892 
H     1.8409298   -0.8822838    0.4222896 
C     1.6037520   -2.4609461   -1.0225060 
O     0.3874323   -1.9544522   -1.6091361 
C     1.1967093   -3.5378412   -0.0285330 
H     2.2038501   -2.9266431   -1.8279722 
H     0.6227353   -3.0994842    0.8011746 
H     2.0777819   -4.0403509    0.3912776 
H     0.5708432   -4.2923517   -0.5223641 
H     0.6233425   -1.3176703   -2.3299324 
C    -1.3106472   -1.6635060    3.2019643 
C    -1.1098662   -0.8789108    1.9047914 
H    -0.5397774   -1.4080172    3.9420132 
H    -1.2526331   -2.7479753    3.0216415 
H    -2.2881410   -1.4546578    3.6586055 
H    -0.0887016   -1.0480437    1.5279834 
H    -1.1932001    0.2040001    2.0938322 
C    -2.0933417   -1.2568891    0.7882949 
O    -1.7062015   -0.6587745   -0.4604101 
C    -3.5194716   -0.8095044    1.0738531 
H    -2.0747806   -2.3574714    0.6660214 
H    -3.5592670    0.2866347    1.1608120 
H    -3.8949564   -1.2477564    2.0081324 
H    -4.1850059   -1.1133765    0.2556416 
H    -0.9050429   -1.1404212   -0.8106686 
C    -0.8337512    2.2138568   -3.7052565 
C     0.0248197    1.0527741   -3.6013397 
H    -1.6105174    2.0441621   -4.4627077 
H    -1.3035653    2.3760948   -2.7147086 
H    -0.2449439    3.0974942   -3.9858468 
N     0.7003001    0.1155963   -3.4786988 
