57
-967.05176660598
C    -2.1748791    1.3222928    1.6832991 
C    -1.6835733    0.0444000    2.3614473 
H    -3.2689712    1.4026978    1.7409101 
H    -1.8974025    1.3437905    0.6212089 
H    -1.7487128    2.2167879    2.1609589 
H    -2.1836773   -0.8320895    1.9181418 
H    -1.9551924    0.0557782    3.4297970 
C    -0.1707932   -0.1739249    2.2640154 
O     0.2705761   -0.2588276    0.8923639 
C     0.2807357   -1.4093158    3.0387536 
H     0.3453647    0.7136738    2.6713647 
H    -0.2372056   -2.3058483    2.6674040 
H     0.0563615   -1.3044410    4.1104132 
H     1.3624400   -1.5624085    2.9244542 
H    -0.3753927   -0.8313090    0.3785059 
C    -0.1816111    4.1715391    0.0772210 
C     0.8681790    3.5894894    1.0211154 
H    -0.9494296    4.7307719    0.6293594 
H    -0.6850274    3.3738666   -0.4841329 
H     0.2778201    4.8591105   -0.6495054 
H     0.3850163    2.9167005    1.7499197 
H     1.3394411    4.3943757    1.6093982 
C     1.9729740    2.8071096    0.3004423 
O     1.4370975    1.7810904   -0.5423964 
C     2.9964120    2.2355488    1.2815762 
H     2.4881153    3.4950580   -0.3933867 
H     2.5151158    1.5190767    1.9646678 
H     3.4523265    3.0309456    1.8893460 
H     3.7976424    1.7104624    0.7441808 
H     0.9583651    1.1150037    0.0224077 
C     0.4583419   -3.7953220   -0.1900897 
C    -1.0121660   -3.9258593   -0.5868836 
H     0.7950225   -4.6706964    0.3830577 
H     0.6297931   -2.9054295    0.4292667 
H     1.0940352   -3.7128853   -1.0838253 
H    -1.6436450   -4.0579639    0.3075740 
H    -1.1485365   -4.8283220   -1.2035738 
C    -1.5528190   -2.7366392   -1.3743411 
O    -1.6109358   -1.6011397   -0.4742739 
C    -2.9397419   -3.0013046   -1.9495564 
H    -0.8525855   -2.4942874   -2.1942290 
H    -3.6457860   -3.2607282   -1.1469783 
H    -2.9073186   -3.8305687   -2.6711072 
H    -3.3193190   -2.1118536   -2.4712630 
H    -1.9191363   -0.8223850   -1.0064516 
C     2.8051288   -1.0701906   -1.0269176 
C     1.9143504   -1.0687089   -2.1727196 
H     3.4548293   -0.1871867   -1.0652507 
H     2.2075336   -1.0170041   -0.1049789 
H     3.4160529   -1.9827884   -1.0237391 
N     1.1963484   -1.0751791   -3.0870224 
C    -0.0916572    1.9119082   -3.3020565 
C    -1.1651330    1.2110361   -2.6314670 
H     0.3270603    1.2681124   -4.0861680 
H    -0.4596976    2.8507104   -3.7365243 
H     0.6861723    2.1165361   -2.5479429 
N    -2.0083062    0.6467340   -2.0657894 
