57
-967.05055585517
C     3.2672767    1.0114864    2.3343603 
C     1.9301032    0.6963503    1.6617479 
H     3.1511083    1.8039711    3.0861692 
H     4.0082188    1.3583784    1.5981397 
H     3.6883789    0.1333823    2.8440297 
H     1.5005763    1.6199152    1.2431310 
H     1.2081161    0.3198948    2.4047075 
C     2.0362363   -0.3263673    0.5250278 
O     0.7897619   -0.4275462   -0.1891434 
C     2.3973137   -1.7265469    0.9973857 
H     2.8135568    0.0248437   -0.1828372 
H     1.6305952   -2.1053646    1.6894480 
H     3.3656209   -1.7313000    1.5146896 
H     2.4624998   -2.4164566    0.1454344 
H     0.5528020    0.4826274   -0.5530072 
C     2.7141979    2.7741375   -3.7927732 
C     2.0821882    2.3875163   -2.4554347 
H     3.7828535    2.9972775   -3.6704270 
H     2.2337225    3.6695016   -4.2151056 
H     2.6283261    1.9677634   -4.5343451 
H     2.2641752    3.1761944   -1.7093803 
H     2.5540864    1.4693317   -2.0657510 
C     0.5740397    2.1581765   -2.5281377 
O     0.1265300    1.9621009   -1.1650241 
C     0.1764190    0.9755363   -3.4065600 
H     0.0945828    3.0774632   -2.9132423 
H     0.6888014    0.0624850   -3.0685469 
H     0.4451005    1.1549072   -4.4568872 
H    -0.9059691    0.7976745   -3.3627124 
H    -0.8669533    1.9246419   -1.1646428 
C    -1.6601001    0.7281940    3.8788790 
C    -1.8000062    0.1590746    2.4663960 
H    -1.8813234    1.8041000    3.8945883 
H    -0.6349655    0.5950057    4.2582736 
H    -2.3424853    0.2394475    4.5887867 
H    -1.1620538    0.7307217    1.7751418 
H    -2.8342001    0.2831676    2.1051804 
C    -1.4131853   -1.3217911    2.3521085 
O    -1.3332856   -1.7274343    0.9789889 
C    -2.3985478   -2.2552607    3.0399807 
H    -0.4173552   -1.4509376    2.8266436 
H    -3.3996561   -2.1444964    2.5961761 
H    -2.4717309   -2.0367957    4.1136689 
H    -2.0826870   -3.2999753    2.9199929 
H    -0.5857275   -1.2162461    0.5640515 
C    -0.4053398   -2.9450553   -1.8516652 
C    -1.5149116   -2.3983949   -2.6106951 
H    -0.7719517   -3.3429062   -0.8950987 
H     0.0913206   -3.7414489   -2.4215432 
H     0.3125723   -2.1446702   -1.6159111 
N    -2.4082082   -1.9515520   -3.2060255 
C    -3.9840189   -0.7131032   -0.6427734 
C    -3.2262891    0.4920786   -0.9021582 
H    -3.3425074   -1.3841083   -0.0478587 
H    -4.9006319   -0.4758391   -0.0865491 
H    -4.2320250   -1.2009483   -1.5945014 
N    -2.5949652    1.4471978   -1.0943902 
