63
-1099.87926371967
C     1.3889894    1.1164765   -2.8731292 
C     2.6764038    1.3355036   -2.0810698 
H     1.0810207    2.0329789   -3.3946720 
H     0.5652454    0.8078079   -2.2168220 
H     1.5233714    0.3294951   -3.6303227 
H     2.5582637    2.1772175   -1.3777883 
H     3.4938591    1.6161659   -2.7652787 
C     3.1214387    0.1062553   -1.2830365 
O     2.1717662   -0.2179895   -0.2406934 
C     4.5143230    0.2723388   -0.6830068 
H     3.1110785   -0.7741203   -1.9471946 
H     4.5393827    1.1335083    0.0010354 
H     5.2614255    0.4395611   -1.4719023 
H     4.8037256   -0.6255195   -0.1205230 
H     2.1727689    0.5289216    0.4165817 
C    -0.6783662    3.2616282   -0.7905955 
C    -1.8854681    2.4643319   -1.2792066 
H    -0.1068740    3.6764190   -1.6321388 
H     0.0013203    2.6299424   -0.2050698 
H    -0.9913156    4.1028700   -0.1529309 
H    -1.5512651    1.6176840   -1.9027917 
H    -2.5180829    3.0942135   -1.9260782 
C    -2.7599153    1.9103506   -0.1493601 
O    -2.0112512    1.0768377    0.7493185 
C    -3.9855474    1.1769229   -0.6914951 
H    -3.0996938    2.7548075    0.4768809 
H    -3.6799708    0.3457233   -1.3440108 
H    -4.6214249    1.8550657   -1.2798208 
H    -4.5841272    0.7659329    0.1321075 
H    -1.5342863    0.3804424    0.2273486 
C    -3.0761116   -2.3911094   -0.1234047 
C    -2.1143694   -2.4247274   -1.3109564 
H    -4.1137247   -2.5459605   -0.4509783 
H    -3.0361149   -1.4276805    0.4007641 
H    -2.8304038   -3.1843078    0.5979829 
H    -2.3804677   -1.6465365   -2.0466602 
H    -2.2072230   -3.3916850   -1.8305215 
C    -0.6469694   -2.2400050   -0.9357673 
O    -0.4752430   -0.8908062   -0.4369113 
C     0.2828177   -2.4917984   -2.1170040 
H    -0.3906238   -2.9446283   -0.1227488 
H     0.0466929   -1.8140615   -2.9501452 
H     0.1817070   -3.5286962   -2.4676276 
H     1.3310884   -2.3372358   -1.8267564 
H     0.4990565   -0.6832029   -0.4018738 
C    -0.2225255    2.5025335    2.9983940 
C     0.9715605    2.0783993    2.3013194 
H    -0.2744630    3.5988926    3.0282139 
H    -1.0863761    2.1020865    2.4397493 
H    -0.2150763    2.0970208    4.0182291 
N     1.9077240    1.7261832    1.7113308 
C     2.8421535   -2.0154166    2.4955909 
C     1.7815548   -2.9572260    2.1875580 
H     3.7727859   -2.5503968    2.7268459 
H     2.9969671   -1.3604276    1.6259889 
H     2.5483923   -1.3992086    3.3566720 
N     0.9205891   -3.6957473    1.9309371 
C    -1.3315611   -1.4513914    2.8007447 
C    -0.3600684   -0.9060503    3.7276923 
H    -1.4756238   -2.5217871    2.9933469 
H    -2.2855915   -0.9168141    2.8930235 
H    -0.9657609   -1.3290528    1.7706324 
N     0.4284141   -0.4509290    4.4520042 
