63
-1099.86893449850
C     2.0925326   -4.7101574   -1.3662191 
C     1.9874034   -3.2291286   -1.0298375 
O     2.4970712   -2.5039268   -2.1628549 
C     0.5629524   -2.7805270   -0.6601369 
H     2.6351383   -3.0204505   -0.1568178 
H     0.2795595   -3.2783654    0.2826058 
C    -0.4956723   -3.0477849   -1.7291789 
H     0.5984313   -1.7026776   -0.4342323 
H     2.6545524   -1.5728196   -1.8767810 
O    -0.6288069    1.4138779    3.4653295 
H    -0.4944000    2.2996641    3.0613870 
C     0.5788307    1.0529916    4.1485306 
H     0.3297381    0.1069221    4.6600152 
C     0.9560397    2.1035112    5.1911313 
C     1.7249699    0.7805648    3.1649601 
H     1.9721529    1.7293534    2.6552332 
C     1.3994166   -0.3065049    2.1427599 
H     2.6246096    0.5025750    3.7388844 
C     1.4452873   -0.9370025   -4.6857064 
H     1.0566075   -1.4541740   -5.5732280 
H     1.6663048   -1.6738000   -3.8911081 
C     0.4736288    0.0252010   -4.2089318 
H     2.3789557   -0.4222334   -4.9491334 
N    -0.3070049    0.7947940   -3.8259754 
H    -1.6127836   -1.3404864    1.1116425 
H    -3.3789851   -1.1574288    1.0402163 
C    -2.4430047   -0.6430054    1.2998762 
O    -1.7087760    1.7258022   -1.5608567 
H    -2.4514796   -0.4263118    2.3752954 
H    -1.3530304    1.5474474   -2.4652339 
H    -1.1243609   -0.2149376   -1.0945435 
C    -2.0129730    0.4360272   -0.9806190 
C    -2.2583098    0.6513358    0.5084902 
H    -1.4031571    1.2016648    0.9273510 
H    -3.1417673    1.3007054    0.6326306 
C    -3.1896658   -0.2022038   -1.7111986 
H    -4.0827606    0.4328188   -1.6143001 
H    -3.4224942   -1.1949565   -1.3011326 
H    -2.9618204   -0.3230765   -2.7791982 
N     2.6237821    0.2458208   -1.4628882 
C     2.0386474    1.1576284   -1.0448189 
H     1.3291969    2.2926151    0.5703209 
C     1.2899111    2.2811991   -0.5264991 
H     1.7069014    3.2234101   -0.9060011 
H     0.2342546    2.1935077   -0.8420899 
N    -0.5287197    3.8867240    1.8731159 
C    -1.3185143    4.1376470    1.0582279 
H    -3.2945352    4.5204150    0.4738448 
C    -2.2972213    4.4163666    0.0258527 
H    -2.0428515    5.3488407   -0.4958123 
H    -2.3013677    3.5776350   -0.6918538 
H     1.6945300   -5.3265873   -0.5476391 
H     3.1413285   -4.9863596   -1.5357573 
H     1.5294842   -4.9414857   -2.2809816 
H    -0.6225219   -4.1223117   -1.9207718 
H    -0.2283285   -2.5664383   -2.6797938 
H    -1.4718957   -2.6515115   -1.4202245 
H     1.8323443    1.7878484    5.7765997 
H     0.1187967    2.2754270    5.8805947 
H     1.1998284    3.0587882    4.7008115 
H     2.2272426   -0.4629108    1.4380995 
H     0.5012823   -0.0430950    1.5684757 
H     1.1954952   -1.2664706    2.6400732 
