63
-1099.87643905838
C     2.0670610    3.4205165    2.2818099 
C     0.9560748    2.7841648    1.4459661 
H     2.9020679    3.7375759    1.6428233 
H     2.4629828    2.7077433    3.0204668 
H     1.7134323    4.3061331    2.8276372 
H     1.3754938    1.9656332    0.8399738 
H     0.5401130    3.5194518    0.7367003 
C    -0.1874896    2.2171650    2.2834727 
O    -1.0659056    1.5077543    1.3753313 
C    -0.9789161    3.2746241    3.0436487 
H     0.2284051    1.4925716    3.0070456 
H    -1.3889137    4.0191251    2.3456202 
H    -0.3445407    3.7906292    3.7776051 
H    -1.8128368    2.8115383    3.5885479 
H    -1.6476752    0.9052571    1.9060917 
C     0.2531070   -3.7730758   -2.8470270 
C     0.7547546   -2.3379385   -2.6734701 
H    -0.4694385   -3.8445263   -3.6722468 
H    -0.2429044   -4.1317664   -1.9319568 
H     1.0740725   -4.4689771   -3.0693420 
H    -0.1062928   -1.6583766   -2.5727322 
H     1.3070438   -2.0070767   -3.5686330 
C     1.6517763   -2.1407056   -1.4439013 
O     1.9549951   -0.7570507   -1.2340953 
C     2.9824569   -2.8713240   -1.5487590 
H     1.1007216   -2.5419101   -0.5676480 
H     3.5415895   -2.5120563   -2.4253917 
H     2.8377408   -3.9559642   -1.6412946 
H     3.5907011   -2.6816549   -0.6540541 
H     1.1015209   -0.2560022   -1.1933242 
C    -0.0792400    2.4234686   -4.4099171 
C    -0.1472159    1.3061502   -3.3683185 
H     0.3010046    2.0411219   -5.3668295 
H     0.5954020    3.2294234   -4.0835353 
H    -1.0653882    2.8694024   -4.6012811 
H     0.8374811    0.8236012   -3.2744837 
H    -0.8520240    0.5227624   -3.6941102 
C    -0.5670284    1.7866295   -1.9818962 
O    -0.4416097    0.6615399   -1.0821915 
C    -1.9858545    2.3431604   -1.9236166 
H     0.1422173    2.5725723   -1.6563138 
H    -2.7040507    1.5927295   -2.2870106 
H    -2.0840510    3.2462584   -2.5421010 
H    -2.2502473    2.6077066   -0.8906061 
H    -0.6435022    0.9874048   -0.1569553 
C     1.4138936   -1.0416218    1.9023064 
C     1.3332775   -0.9321640    3.3461556 
H     0.6589651   -0.3918234    1.4394794 
H     2.4000976   -0.7446006    1.5256369 
H     1.2071765   -2.0753748    1.5958180 
N     1.2377920   -0.8509798    4.5027848 
C    -1.6632034   -2.4975407    4.3633468 
C    -2.0343586   -1.3453758    3.5695117 
H    -0.8400309   -2.2194184    5.0359196 
H    -2.5234938   -2.8529483    4.9456189 
H    -1.3203114   -3.2920234    3.6844860 
N    -2.3214351   -0.4287508    2.9174528 
C    -2.3836270   -1.8541754   -0.3969573 
C    -1.6227172   -2.7220411    0.4810062 
H    -2.7972133   -2.4333705   -1.2333375 
H    -3.2059054   -1.3921160    0.1658412 
H    -1.7381469   -1.0525333   -0.7950499 
N    -1.0078498   -3.4085513    1.1902825 
