66
-1068.03002551229
C    -0.7923951   -3.2198915    0.2185128 
C    -1.2388616   -2.6483732    1.5630432 
H    -0.0338345   -4.0031514    0.3533645 
H    -0.3631973   -2.4427305   -0.4270140 
H    -1.6414363   -3.6665103   -0.3203720 
H    -0.3714497   -2.2507724    2.1175605 
H    -1.6642293   -3.4511524    2.1875493 
C    -2.2806228   -1.5304485    1.4499867 
O    -1.7420812   -0.3655199    0.7894009 
C    -2.8579724   -1.1412296    2.8077207 
H    -3.0997143   -1.8655943    0.7914925 
H    -2.0554724   -0.8325583    3.4946503 
H    -3.3875377   -1.9893082    3.2652830 
H    -3.5626584   -0.3064656    2.7003109 
H    -0.9345738   -0.0545462    1.2865315 
C    -0.2882752    1.7151612   -3.9303909 
C    -0.7819855    0.2708189   -4.0156113 
H     0.2760724    1.9952822   -4.8309820 
H     0.3748587    1.8593982   -3.0670777 
H    -1.1330173    2.4102387   -3.8260131 
H     0.0666090   -0.4230302   -4.1476541 
H    -1.4223964    0.1497993   -4.9034813 
C    -1.5812897   -0.1805257   -2.7971312 
O    -0.6900287   -0.1813814   -1.6607967 
C    -2.1924562   -1.5655994   -2.9817608 
H    -2.3835298    0.5538440   -2.6075506 
H    -1.4083528   -2.3123883   -3.1754082 
H    -2.8973813   -1.5684176   -3.8258754 
H    -2.7435730   -1.8709832   -2.0813737 
H    -1.2066271   -0.3142129   -0.8126169 
C     2.6351081   -1.9828201    0.2990800 
C     2.6687773   -1.4718670   -1.1403819 
H     2.5428787   -3.0771068    0.3275904 
H     1.7908873   -1.5614325    0.8598719 
H     3.5579999   -1.7116747    0.8341588 
H     1.7570630   -1.7808595   -1.6789354 
H     3.5167886   -1.9280304   -1.6770250 
C     2.7962237    0.0502813   -1.2604598 
O     1.6254639    0.7268000   -0.7503648 
C     3.0741659    0.4941204   -2.6933261 
H     3.6188298    0.3936482   -0.6098256 
H     2.2849581    0.1346294   -3.3697571 
H     4.0342149    0.0910918   -3.0464920 
H     3.1110849    1.5894686   -2.7579877 
H     0.8139650    0.3930026   -1.2406232 
C    -1.0447396    2.1409269    3.6196815 
C     0.2924320    1.4527540    3.8932143 
H    -1.6818007    2.1413956    4.5148611 
H    -1.6027648    1.6377383    2.8190353 
H    -0.8933964    3.1886957    3.3193321 
H     0.1296487    0.4178601    4.2390687 
H     0.8208448    1.9742310    4.7068635 
C     1.2192483    1.3997605    2.6815487 
O     0.6104523    0.5465522    1.6974139 
C     2.6130723    0.8865598    3.0313784 
H     1.3071081    2.4212424    2.2595749 
H     2.5500089   -0.1222085    3.4640561 
H     3.1045610    1.5510254    3.7569923 
H     3.2453209    0.8355506    2.1339842 
H     1.1120025    0.6140337    0.8276222 
C    -0.8478739    3.0100483   -0.1926053 
C    -2.0833302    2.8819371   -0.9435813 
H     0.0129540    2.7596458   -0.8269372 
H    -0.7354425    4.0368686    0.1805373 
H    -0.8494266    2.3161394    0.6581270 
N    -3.0698787    2.7802404   -1.5499869 
