66
-1068.02659968591
C    -1.7167041    5.0516856   -1.5174748 
C    -0.9199919    3.8839188   -0.9353606 
H    -1.0540535    5.7567326   -2.0376654 
H    -2.2409198    5.6094833   -0.7267100 
H    -2.4697994    4.7131897   -2.2428823 
H    -0.1169988    4.2637635   -0.2849136 
H    -0.4305060    3.3161906   -1.7443783 
C    -1.7580826    2.9115738   -0.1064670 
O    -0.8394540    1.9842311    0.5006664 
C    -2.8086772    2.1672005   -0.9279131 
H    -2.2617977    3.4774703    0.7001480 
H    -2.3169642    1.6090429   -1.7391542 
H    -3.5359373    2.8618068   -1.3717306 
H    -3.3615406    1.4581806   -0.2971880 
H    -1.3274916    1.4174804    1.1735617 
C     3.8641211    2.1336228    0.3337777 
C     2.5940182    1.2891775    0.2190002 
H     4.2170747    2.1750410    1.3734573 
H     3.6819027    3.1679402    0.0039568 
H     4.6829893    1.7279020   -0.2767044 
H     1.8333890    1.6718065    0.9174733 
H     2.7992247    0.2460720    0.5121704 
C     1.9731705    1.2862843   -1.1832841 
O     0.7111840    0.5975722   -1.1729520 
C     2.8462494    0.6223865   -2.2375206 
H     1.7952051    2.3393171   -1.4805929 
H     3.0701260   -0.4163670   -1.9556261 
H     3.7943834    1.1623605   -2.3596416 
H     2.3295010    0.6093699   -3.2061996 
H     0.0937952    1.0770020   -0.5433114 
C    -0.1728695   -5.3016183   -0.5499682 
C    -0.0788194   -4.2066819   -1.6130157 
H    -0.5369994   -6.2430044   -0.9840399 
H    -0.8672522   -5.0144545    0.2543457 
H     0.8028052   -5.5093012   -0.0886127 
H    -1.0528370   -4.0933333   -2.1145841 
H     0.6411346   -4.4880186   -2.3990115 
C     0.3216809   -2.8398559   -1.0581002 
O     0.1680420   -1.8923116   -2.1229987 
C     1.7448966   -2.8131508   -0.5061230 
H    -0.3766653   -2.5865976   -0.2336460 
H     2.4630086   -3.0642581   -1.3008470 
H     1.8693017   -3.5293852    0.3186457 
H     1.9852792   -1.8128956   -0.1217732 
H     0.4130923   -0.9920078   -1.7743009 
C     1.0567154   -1.7012523    3.1948641 
C    -0.0333736   -1.0230441    2.3645326 
H     1.6297062   -2.4083213    2.5805948 
H     0.6260737   -2.2642846    4.0369964 
H     1.7675840   -0.9718777    3.6072580 
H    -0.6483923   -1.7913297    1.8694306 
H     0.4192703   -0.4222037    1.5595725 
C    -0.9672352   -0.1252424    3.1825623 
O    -2.0036986    0.4343937    2.3393904 
C    -0.2643718    1.0513016    3.8422739 
H    -1.4571674   -0.7385380    3.9627988 
H     0.2565170    1.6593187    3.0880665 
H     0.4697692    0.7047550    4.5809100 
H    -0.9956621    1.6887139    4.3565686 
H    -2.4494833   -0.3014228    1.8488594 
C    -2.9459348   -1.6436227   -2.0736732 
C    -3.0590766   -1.5106529   -0.6370161 
H    -1.8700464   -1.7109163   -2.3365233 
H    -3.4671624   -2.5485692   -2.4133555 
H    -3.3920516   -0.7677927   -2.5636681 
N    -3.1231935   -1.3939757    0.5170460 
