72
-1200.85631020348
C     0.5341932   -0.8187969   -4.4503920 
C     0.0320381   -0.3453274   -3.0864848 
H     0.7519768   -1.8951072   -4.4274416 
H     1.4613536   -0.2975206   -4.7338087 
H    -0.2037384   -0.6429586   -5.2458788 
H     0.7531276   -0.6362350   -2.3086749 
H    -0.9144942   -0.8505777   -2.8351689 
C    -0.1959322    1.1663891   -2.9860660 
O    -0.4179875    1.5553552   -1.6105432 
C    -1.3466634    1.6625689   -3.8550672 
H     0.7320824    1.6874903   -3.2772669 
H    -2.2800701    1.1485154   -3.5786529 
H    -1.1538991    1.4734502   -4.9205189 
H    -1.4906611    2.7421235   -3.7168662 
H    -1.1458454    0.9748163   -1.2381043 
C     1.0253323   -1.7895394    4.3569407 
C     0.5594020   -1.0579188    3.0980923 
H     1.3394803   -1.0749914    5.1297795 
H     1.8877897   -2.4321405    4.1297689 
H     0.2313078   -2.4156587    4.7885951 
H     1.3767443   -0.4106677    2.7460250 
H    -0.3028878   -0.4060049    3.3213584 
C     0.1821358   -1.9956637    1.9489842 
O    -0.0565816   -1.2526440    0.7382270 
C    -1.0706237   -2.8145890    2.2172046 
H     1.0305715   -2.6803444    1.7691859 
H    -1.9331512   -2.1533496    2.3939985 
H    -0.9405095   -3.4552959    3.0987648 
H    -1.2948891   -3.4622009    1.3594341 
H     0.6782674   -0.5899597    0.5676162 
C    -3.4331188    1.9201894    2.4917432 
C    -2.4880117    1.3912127    1.4126880 
H    -2.8973276    2.5702491    3.1967435 
H    -3.8757780    1.0955839    3.0710803 
H    -4.2569996    2.5076629    2.0631543 
H    -1.6286908    0.8932145    1.8889344 
H    -2.0752345    2.2228126    0.8184846 
C    -3.1356910    0.3858314    0.4550390 
O    -2.1420053   -0.1808241   -0.4234399 
C    -4.2136634    0.9941928   -0.4281765 
H    -3.5783459   -0.4352642    1.0535575 
H    -3.7949585    1.8212353   -1.0208978 
H    -5.0455095    1.3845079    0.1726911 
H    -4.6133051    0.2398099   -1.1189446 
H    -1.4135747   -0.6026983    0.1369240 
C     4.1853433    3.3530130    0.6189580 
C     3.2510280    2.4317279   -0.1676988 
H     4.9203386    3.8286439   -0.0449050 
H     4.7417636    2.7897046    1.3830773 
H     3.6349020    4.1559861    1.1289113 
H     3.8447942    1.7038883   -0.7422236 
H     2.6678972    3.0147104   -0.9013530 
C     2.2776290    1.6377629    0.7088315 
O     1.5943043    0.6573723   -0.0999003 
C     1.2750751    2.5146481    1.4521000 
H     2.8601212    1.0456514    1.4337394 
H     0.6745297    3.1012704    0.7402090 
H     1.7837984    3.2117619    2.1321111 
H     0.5942758    1.8948262    2.0498851 
H     0.8935516    1.1102814   -0.6641170 
C    -1.9309508   -3.2859102   -1.6261633 
C    -0.5076962   -3.5679710   -1.6810943 
H    -2.4321333   -4.0041124   -0.9631862 
H    -2.1048768   -2.2663391   -1.2468806 
H    -2.3679864   -3.3725996   -2.6304643 
N     0.6290310   -3.8014799   -1.7376732 
C     3.3189221   -1.9533090   -0.8667823 
C     3.5157706   -1.7624845    0.5581038 
H     4.2546489   -2.2773974   -1.3415638 
H     2.5391563   -2.7077466   -1.0526125 
H     2.9885389   -1.0000104   -1.3013425 
N     3.6625699   -1.5928211    1.6994135 
