72
-1200.85998772359
C    -0.3408170   -3.4274163    0.4036723 
C     0.8661382   -2.9827649    1.2313351 
H    -1.1317526   -3.8189200    1.0575662 
H    -0.0784948   -4.2241101   -0.3066375 
H    -0.7669547   -2.5932105   -0.1697983 
H     1.2928745   -3.8469641    1.7676988 
H     0.5443289   -2.2675174    2.0046962 
C     2.0017974   -2.3235767    0.4344069 
O     1.5964536   -1.0530559   -0.1221541 
C     2.5257008   -3.1725674   -0.7140766 
H     2.8326149   -2.1289021    1.1383982 
H     1.7430214   -3.3409913   -1.4663369 
H     2.8664430   -4.1509384   -0.3476613 
H     3.3722591   -2.6745297   -1.2056461 
H     1.2525319   -0.4674759    0.6278800 
C    -2.7778796   -1.0034319    1.8161361 
C    -3.2757304   -0.4408676    0.4835978 
H    -3.0144442   -2.0732305    1.8935547 
H    -3.2479547   -0.5008854    2.6732222 
H    -1.6896669   -0.8959107    1.9192838 
H    -4.3733831   -0.5317626    0.4242186 
H    -2.8708330   -1.0393068   -0.3477663 
C    -2.9160398    1.0282361    0.2150066 
O    -1.4921305    1.2075386    0.0450238 
C    -3.3635650    1.9853161    1.3095046 
H    -3.4041462    1.3216401   -0.7333524 
H    -2.8550289    1.7627046    2.2574115 
H    -4.4471944    1.9053482    1.4737704 
H    -3.1325835    3.0225094    1.0316388 
H    -1.1745383    0.5861701   -0.6875288 
C    -0.4329092    1.3316674    4.4568331 
C     0.1603385    2.2322454    3.3723078 
H    -1.1855678    1.8732565    5.0464449 
H     0.3364688    0.9728826    5.1547033 
H    -0.9178116    0.4519583    4.0121594 
H     0.6944111    3.0820161    3.8282884 
H    -0.6528704    2.6720742    2.7715672 
C     1.1260795    1.5312078    2.4090423 
O     0.4525705    0.4520267    1.7188866 
C     2.3517251    0.9304362    3.0780265 
H     1.4689731    2.2691002    1.6644294 
H     2.0693932    0.1276304    3.7731040 
H     2.9030448    1.7016147    3.6326586 
H     3.0295072    0.5134873    2.3209249 
H    -0.3313735    0.8140582    1.2078804 
C    -0.5786426   -2.7261725   -3.7502894 
C     0.3410343   -1.5040868   -3.7477346 
H    -0.0658100   -3.6011141   -4.1733429 
H    -1.4837166   -2.5537756   -4.3492654 
H    -0.8956453   -2.9787535   -2.7292985 
H     0.6081643   -1.2220501   -4.7794767 
H     1.2902744   -1.7566920   -3.2470514 
C    -0.2366265   -0.2638103   -3.0546977 
O    -0.5296258   -0.5539852   -1.6675068 
C    -1.5212392    0.2594934   -3.6767836 
H     0.5176014    0.5398366   -3.0974045 
H    -2.3334803   -0.4745982   -3.5832346 
H    -1.3685456    0.4846164   -4.7408778 
H    -1.8316126    1.1880507   -3.1786860 
H     0.3083543   -0.8413311   -1.1967435 
C     3.4642674    1.0936589   -1.7348493 
C     3.3524509    2.1346754   -0.7303387 
H     4.5203705    0.8755167   -1.9424333 
H     2.9640231    0.1855514   -1.3609552 
H     2.9689969    1.4298077   -2.6564592 
N     3.2400590    2.9614402    0.0797989 
C     0.1109796    3.9378843   -0.7784138 
C     0.5917037    3.4106908   -2.0417655 
H    -0.4190440    4.8863955   -0.9378389 
H    -0.5724080    3.2021520   -0.3244056 
H     0.9670416    4.1028948   -0.1093933 
N     0.9780693    2.9669158   -3.0448738 
