81
-1301.83951815741
C     1.3599215    1.7170637    2.3141124 
C     1.9416679    2.6887364    1.2896064 
H     2.1546140    1.2617233    2.9210852 
H     0.8086663    0.9035347    1.8254821 
H     0.6626314    2.2252030    2.9968414 
H     2.6034543    2.1492664    0.5917773 
H     2.5648283    3.4440248    1.7958945 
C     0.8807529    3.4288378    0.4695793 
O     0.0227124    2.5133158   -0.2431450 
C     1.4966337    4.4300282   -0.5026509 
H     0.2057862    3.9621315    1.1615207 
H     2.1924759    3.9215423   -1.1864938 
H     2.0566852    5.2078379    0.0365483 
H     0.7148679    4.9135918   -1.1029155 
H     0.5914145    1.8527736   -0.7486401 
C     0.0986805    1.8179172   -3.8417711 
C     1.6049974    1.7319295   -3.5993450 
H    -0.1428699    2.6583131   -4.5074912 
H    -0.4453718    1.9767910   -2.9012631 
H    -0.2768498    0.8969572   -4.3100681 
H     1.9633449    2.6559779   -3.1143531 
H     2.1350703    1.6635775   -4.5625310 
C     2.0425030    0.5402154   -2.7494943 
O     1.4121288    0.6403933   -1.4548660 
C     3.5594348    0.4912361   -2.5870667 
H     1.6882465   -0.3885090   -3.2299878 
H     3.9227821    1.4176277   -2.1180376 
H     4.0548174    0.3756850   -3.5621785 
H     3.8592092   -0.3536693   -1.9523552 
H     1.3296313   -0.2671609   -1.0298604 
C     1.9489463   -4.0987851   -1.6865623 
C     2.7907263   -3.1594287   -0.8247094 
H     2.5593108   -4.5702185   -2.4690914 
H     1.1320044   -3.5574097   -2.1788070 
H     1.5088879   -4.9018049   -1.0754005 
H     3.2306145   -2.3644861   -1.4498261 
H     3.6369251   -3.7042146   -0.3756852 
C     2.0042438   -2.5025605    0.3055934 
O     0.9620018   -1.6987456   -0.2839601 
C     2.8771158   -1.6571687    1.2284860 
H     1.5184991   -3.3024260    0.8958551 
H     3.3582786   -0.8453687    0.6638661 
H     3.6617994   -2.2690105    1.6970881 
H     2.2730391   -1.2033343    2.0260724 
H     0.2512751   -1.5246281    0.4000860 
C    -1.3824330   -4.0813563    1.5311123 
C    -0.9189032   -3.1750116    2.6715671 
H    -0.9932604   -5.1015277    1.6532384 
H    -1.0395595   -3.7050107    0.5583080 
H    -2.4805491   -4.1428693    1.4977927 
H     0.1828884   -3.1144466    2.6873719 
H    -1.2175581   -3.6025964    3.6418635 
C    -1.4756672   -1.7564175    2.5950173 
O    -1.1085897   -1.2044515    1.3176742 
C    -0.9838553   -0.8700353    3.7341233 
H    -2.5816985   -1.8146000    2.6344887 
H     0.1149454   -0.8271336    3.7394621 
H    -1.3217156   -1.2617555    4.7047404 
H    -1.3661919    0.1534119    3.6207624 
H    -1.4676693   -0.2660629    1.2354181 
C    -4.4622996   -0.3388407    0.6070887 
C    -4.2960539    1.0486214    1.2281217 
H    -5.2753110   -0.8963120    1.0925852 
H    -3.5458128   -0.9369532    0.6953251 
H    -4.7083122   -0.2607622   -0.4626659 
H    -4.1139146    0.9675013    2.3127888 
H    -5.2311468    1.6185938    1.1100486 
C    -3.1597999    1.8722121    0.6258136 
O    -1.9100938    1.2841929    1.0329126 
C    -3.2048774    3.3340684    1.0609024 
H    -3.2336485    1.8245090   -0.4791477 
H    -3.1458107    3.4066528    2.1567257 
H    -4.1361838    3.8139974    0.7264949 
H    -2.3616379    3.8899614    0.6284186 
H    -1.1538884    1.7754716    0.5733325 
C    -1.7223267   -0.9064772   -1.9295853 
C    -0.9731292   -1.5682654   -2.9815627 
H    -1.7504068   -1.5284960   -1.0253882 
H    -1.2331856    0.0427533   -1.6736722 
H    -2.7485070   -0.7035614   -2.2622514 
N    -0.3703714   -2.0863072   -3.8301636 
