81
-1301.83954972876
C     2.3804007   -3.8373742   -0.2339290 
C     1.0001983   -4.4811889   -0.0957405 
H     3.1562690   -4.4571480    0.2365839 
H     2.4152258   -2.8442250    0.2326926 
H     2.6509873   -3.7180875   -1.2939693 
H     0.7597571   -4.6564614    0.9662879 
H     1.0051067   -5.4694466   -0.5820508 
C    -0.1368220   -3.6610968   -0.7014114 
O    -0.3385566   -2.4943526    0.1175330 
C    -1.4383965   -4.4516594   -0.7987367 
H     0.1622511   -3.3362857   -1.7180857 
H    -1.7495967   -4.7958875    0.1983677 
H    -1.3165241   -5.3284219   -1.4513094 
H    -2.2384114   -3.8253533   -1.2169251 
H    -1.0338554   -1.9036377   -0.3208607 
C     2.8490856    3.9028330    0.2307717 
C     1.4682612    3.9393610    0.8831264 
H     3.1059487    4.8778233   -0.2057613 
H     2.8871188    3.1557465   -0.5712236 
H     3.6249620    3.6518849    0.9704632 
H     0.7023759    4.1990806    0.1334558 
H     1.4272344    4.7263830    1.6534161 
C     1.0714281    2.6204531    1.5393858 
O     1.0164985    1.6095527    0.5124484 
C    -0.2566645    2.6998884    2.2864814 
H     1.8713311    2.3359354    2.2487879 
H    -1.0699691    2.9661056    1.5959206 
H    -0.2143400    3.4559193    3.0840949 
H    -0.5037393    1.7317132    2.7433613 
H     1.0863872    0.7042585    0.9353639 
C    -2.5872823   -0.3377125    1.8014990 
C    -3.4966376    0.0792996    0.6477232 
H    -2.7260919    0.3200996    2.6705628 
H    -1.5291906   -0.2884844    1.5141642 
H    -2.7948163   -1.3694948    2.1220696 
H    -3.2422753    1.1001657    0.3176724 
H    -4.5459445    0.1082473    0.9842196 
C    -3.4187160   -0.8512555   -0.5661313 
O    -2.0746959   -0.9404034   -1.0843803 
C    -4.3789808   -0.4354727   -1.6760414 
H    -3.6612055   -1.8783428   -0.2418183 
H    -4.1697128    0.5955365   -1.9974861 
H    -5.4218951   -0.4793412   -1.3298786 
H    -4.2703503   -1.0965554   -2.5458105 
H    -1.7028960   -0.0111829   -1.2013662 
C     3.8312055   -0.0136095    2.5157668 
C     2.5995690   -0.3761213    3.3453574 
H     4.4770778    0.6935245    3.0542451 
H     3.5466390    0.4498118    1.5619010 
H     4.4299913   -0.9080095    2.2873664 
H     2.0038288    0.5280273    3.5591854 
H     2.9055941   -0.7811548    4.3229707 
C     1.6893253   -1.4033280    2.6785510 
O     1.3092892   -0.8884722    1.3894707 
C     0.4600159   -1.7319078    3.5187555 
H     2.2731580   -2.3309116    2.5144485 
H    -0.1169944   -0.8192709    3.7268866 
H     0.7539824   -2.1841252    4.4773067 
H    -0.1938592   -2.4372117    2.9881844 
H     0.7099452   -1.5503672    0.9215341 
C    -0.8339351    0.6740897   -4.1265514 
C    -1.5526158    1.8933687   -3.5503777 
H    -1.2965007    0.3581619   -5.0720808 
H    -0.8835161   -0.1779280   -3.4355954 
H     0.2232938    0.8996087   -4.3260937 
H    -2.6074807    1.6467202   -3.3404767 
H    -1.5680778    2.7045615   -4.2954325 
C    -0.9260572    2.4543356   -2.2750622 
O    -0.9545241    1.4304530   -1.2578948 
C    -1.6657006    3.6958406   -1.7835456 
H     0.1300818    2.7043285   -2.4771159 
H    -2.7225416    3.4589293   -1.5903169 
H    -1.6193116    4.5017221   -2.5305811 
H    -1.2237903    4.0721887   -0.8510024 
H    -0.2295575    1.5864900   -0.5789308 
C     1.9962261   -0.4247873   -1.8275749 
C     2.3841536    0.8423062   -2.4191359 
H     2.4041801   -1.2593540   -2.4124899 
H     2.3585612   -0.4953475   -0.7936431 
H     0.9010008   -0.5004836   -1.8095260 
N     2.6840828    1.8565066   -2.9020399 
