81
-1301.83616796165
C     2.5546987    0.3701932    4.1617168 
C     1.1581318    0.9689893    4.3497475 
H     2.8109404   -0.2778912    5.0113427 
H     3.3265881    1.1499457    4.1012302 
H     2.6150808   -0.2370155    3.2484639 
H     1.1356599    1.5874842    5.2614821 
H     0.4245868    0.1616563    4.5060713 
C     0.6539844    1.8296136    3.1878732 
O     0.4956684    0.9820929    2.0386427 
C     1.5560590    3.0163902    2.8562459 
H    -0.3446542    2.2141464    3.4721986 
H     2.5483043    2.6730157    2.5339631 
H     1.6796878    3.6718710    3.7310676 
H     1.1194335    3.6123417    2.0433289 
H    -0.0047048    1.4706372    1.3107284 
C    -3.0575988    1.3047466    1.8312666 
C    -3.1205880    1.8867343    0.4186831 
H    -3.8528881    0.5617950    1.9813441 
H    -3.1842983    2.0800037    2.6003673 
H    -2.0969700    0.8031321    2.0101746 
H    -4.0721298    2.4250760    0.2728951 
H    -3.1123353    1.0673444   -0.3171291 
C    -1.9752813    2.8451465    0.0580987 
O    -0.7070119    2.1592165    0.0114476 
C    -1.8248689    4.0201389    1.0125744 
H    -2.1744110    3.2412313   -0.9536334 
H    -1.5665674    3.6792510    2.0251400 
H    -2.7625957    4.5898687    1.0738389 
H    -1.0314344    4.6937914    0.6635920 
H    -0.7523107    1.4514296   -0.7058662 
C    -1.7626355   -2.1282173    0.9258523 
C    -1.0653218   -2.1364116    2.2862705 
H    -2.8274276   -1.8845414    1.0429847 
H    -1.7039064   -3.1053413    0.4259868 
H    -1.3288543   -1.3790625    0.2508547 
H    -1.5475171   -2.8662384    2.9580488 
H    -1.1873263   -1.1512553    2.7635327 
C     0.4358494   -2.4586966    2.2530321 
O     1.1765665   -1.5028560    1.4688612 
C     0.7567002   -3.8412311    1.7041200 
H     0.8117019   -2.4020514    3.2926958 
H     0.4283355   -3.9386691    0.6597654 
H     0.2521049   -4.6173205    2.2958854 
H     1.8383895   -4.0260034    1.7417935 
H     0.9248895   -0.5733577    1.7549368 
C     2.5884700   -1.1701490   -3.8451891 
C     1.8106079   -2.3633354   -3.2883119 
H     2.4794883   -1.1146676   -4.9368153 
H     3.6629319   -1.2415160   -3.6259275 
H     2.2204597   -0.2223580   -3.4327086 
H     2.1783975   -3.2994216   -3.7387885 
H     0.7518284   -2.2788808   -3.5799373 
C     1.8696088   -2.5280238   -1.7679239 
O     1.3147460   -1.3448459   -1.1609530 
C     3.2747021   -2.7795332   -1.2269037 
H     1.2299265   -3.3914874   -1.5012791 
H     3.9413987   -1.9395826   -1.4641273 
H     3.6997905   -3.6972360   -1.6590851 
H     3.2486747   -2.8925875   -0.1347830 
H     1.2545073   -1.4851336   -0.1632014 
C    -3.3285819   -1.1691328   -2.6649937 
C    -2.0137787   -1.0700173   -3.4393002 
H    -3.8299379   -2.1264227   -2.8636367 
H    -4.0272711   -0.3672827   -2.9418256 
H    -3.1450257   -1.1022454   -1.5840600 
H    -2.2045702   -1.0870236   -4.5253721 
H    -1.3951879   -1.9559806   -3.2212143 
C    -1.1794481    0.1789852   -3.1179041 
O    -0.7981359    0.1689841   -1.7246259 
C    -1.8994073    1.4887945   -3.3982064 
H    -0.2593449    0.1546203   -3.7277044 
H    -2.7780315    1.6028548   -2.7480379 
H    -2.2401637    1.5209372   -4.4424101 
H    -1.2175312    2.3328640   -3.2361962 
H    -0.0376980   -0.4716198   -1.5963421 
C     2.3844979    1.7854742   -1.0505101 
C     1.8443817    2.2648461   -2.3099296 
H     2.3204629    0.6866569   -1.0190737 
H     3.4328578    2.0943383   -0.9430172 
H     1.7959139    2.1920191   -0.2181046 
N     1.4107379    2.6359851   -3.3231176 
