24
-530.69476906742
C    -0.7418040   -2.1988410    1.6256763 
C     0.5666655   -1.5618486    1.6253879 
H    -0.9611829   -2.5726838    0.6049543 
H    -0.7713939   -3.0336930    2.3527148 
H    -1.5073184   -1.4405548    1.8872674 
N     1.6139961   -1.0366902    1.6096857 
C     2.1988410   -0.7418040   -1.6256763 
C     1.5618486    0.5666655   -1.6253879 
H     2.5726838   -0.9611829   -0.6049543 
H     1.4405548   -1.5073184   -1.8872674 
H     3.0336930   -0.7713939   -2.3527148 
N     1.0366901    1.6139961   -1.6096857 
C    -2.1988410    0.7418040   -1.6256763 
C    -1.5618486   -0.5666655   -1.6253879 
H    -1.4405548    1.5073184   -1.8872674 
H    -3.0336930    0.7713939   -2.3527148 
H    -2.5726838    0.9611829   -0.6049543 
N    -1.0366901   -1.6139961   -1.6096857 
C     0.7418040    2.1988410    1.6256763 
C    -0.5666655    1.5618486    1.6253879 
H     1.5073184    1.4405548    1.8872674 
H     0.9611829    2.5726838    0.6049543 
H     0.7713939    3.0336930    2.3527148 
N    -1.6139961    1.0366901    1.6096857 
